version 2
run Aufgabe-1-4-0-20200522-10:12:02-5904
attr configname Aufgabe-1-4
attr datetime 20200522-10:12:02
attr experiment Aufgabe-1-4
attr inifile omnetpp.ini
attr iterationvars ""
attr iterationvarsf ""
attr measurement ""
attr network SrcSink
attr processid 5904
attr repetition 0
attr replication #0
attr resultdir results
attr runnumber 0
attr seedset 0
param SrcSink.num_nodes 2

vector 0 SrcSink.node[0] Send-counter-vector ETV
vector 1 SrcSink.node[1] Send-counter-vector ETV
vector 2 SrcSink.node[1] Receive-counter-vector ETV
vector 3 SrcSink.node[0] Receive-counter-vector ETV
0	1	0	1
0	6	0.000007436704	2
0	11	0.000012249597	3
0	18	0.000021275554	4
0	22	0.000026595349	5
0	24	0.000030631914	6
0	26	0.00003181388	7
0	31	0.000041428276	8
0	36	0.000046690748	9
0	40	0.000053800664	10
0	45	0.000059637023	11
0	51	0.000064899427	12
0	54	0.00006784838	13
0	59	0.000069017488	14
0	65	0.000075569894	15
0	67	0.000079805465	16
0	78	0.000088926602	17
0	85	0.000096682777	18
0	95	0.000106578141	19
0	98	0.000111774938	20
0	110	0.000118386529	21
0	118	0.000125349271	22
0	124	0.000135137406	23
0	134	0.000141581016	24
0	136	0.000143649565	25
0	147	0.000152573848	26
0	155	0.000161824355	27
0	159	0.000168831048	28
0	164	0.000172435703	29
0	167	0.000173616671	30
0	172	0.000177944944	31
0	177	0.00018527858	32
0	180	0.00019308354	33
0	184	0.000199411917	34
0	192	0.000208986658	35
0	197	0.000216889871	36
0	201	0.000220138037	37
0	206	0.000226434223	38
0	208	0.00022950902	39
0	212	0.000234323715	40
0	217	0.000238037888	41
0	223	0.000244600027	42
0	226	0.000248284568	43
0	232	0.000252470988	44
0	240	0.000262191644	45
0	249	0.000267114428	46
0	251	0.00026901055	47
0	256	0.000276438722	48
0	260	0.000285251857	49
0	262	0.000287366237	50
0	272	0.000296150637	51
0	274	0.000300931315	52
0	285	0.000309728756	53
0	287	0.000312273423	54
0	296	0.000317679363	55
0	300	0.000320694685	56
0	303	0.000328034415	57
0	310	0.000336087213	58
0	316	0.000345495139	59
0	321	0.000351804329	60
0	324	0.000356388319	61
0	327	0.000359390308	62
0	336	0.000368889659	63
0	341	0.000373799409	64
0	344	0.000378199176	65
0	352	0.000384081665	66
0	357	0.000389910878	67
0	361	0.000392862951	68
0	364	0.00039404881	69
0	370	0.000402983079	70
0	376	0.000406905226	71
0	379	0.000410711968	72
0	383	0.000418894389	73
0	389	0.000426081783	74
0	395	0.000433659485	75
0	401	0.000441063739	76
0	408	0.000447880119	77
0	411	0.000449937906	78
0	413	0.00045342995	79
0	422	0.000460881687	80
0	428	0.000463366317	81
0	430	0.000464640394	82
0	439	0.000472378367	83
0	441	0.000473788899	84
0	447	0.000477418227	85
0	450	0.000478566094	86
0	453	0.000479649255	87
0	459	0.000487715631	88
0	462	0.000489291228	89
0	466	0.000495515252	90
0	471	0.000498480878	91
0	476	0.000503911292	92
0	481	0.000511288225	93
0	487	0.000514037305	94
0	492	0.000522798093	95
0	498	0.000530580219	96
0	503	0.000535274648	97
0	509	0.000539884839	98
0	513	0.000544539923	99
0	517	0.000552639778	100
0	519	0.000557235268	101
0	524	0.000561900439	102
0	526	0.000563381284	103
0	529	0.00056450682	104
0	535	0.000572442047	105
0	538	0.000574248474	106
0	543	0.000582542291	107
0	549	0.000591008711	108
0	552	0.00059250708	109
0	558	0.000597898491	110
0	564	0.000602876629	111
0	566	0.000610973539	112
0	571	0.000617913898	113
0	583	0.00062504613	114
0	590	0.000633058858	115
0	595	0.000638728374	116
0	603	0.000648363274	117
0	605	0.000650802078	118
0	612	0.000657934611	119
0	614	0.000660373442	120
0	621	0.000669509298	121
0	628	0.000677712704	122
0	633	0.000685009303	123
0	639	0.000691733853	124
0	645	0.000699901376	125
0	650	0.000706220233	126
0	658	0.000715787103	127
0	661	0.000717552113	128
0	663	0.000724212199	129
0	671	0.000733755876	130
0	674	0.000735055618	131
0	680	0.00073713356	132
0	685	0.000742920203	133
0	690	0.000750042634	134
0	693	0.000751870882	135
0	697	0.00075581119	136
0	700	0.000757108861	137
0	710	0.000762726535	138
0	718	0.000767112574	139
0	726	0.000777025679	140
0	733	0.000783785896	141
0	735	0.000786958664	142
0	741	0.000791385227	143
0	745	0.000800070688	144
0	753	0.000808473723	145
0	757	0.000817798425	146
0	759	0.000821935099	147
0	764	0.0008252502	148
0	766	0.000834323831	149
0	773	0.000844251932	150
0	777	0.000848474899	151
0	782	0.000850499249	152
0	788	0.00085486745	153
0	793	0.000863027263	154
0	800	0.000872000923	155
0	804	0.000878706902	156
0	811	0.000886463786	157
0	816	0.000893845435	158
0	824	0.000898873078	159
0	834	0.000907931551	160
0	839	0.000912592151	161
0	842	0.000917691148	162
0	847	0.000918920624	163
0	850	0.000922420587	164
0	854	0.000928145321	165
0	863	0.00093746275	166
0	866	0.000941599034	167
0	871	0.000946080478	168
0	876	0.000955116238	169
0	881	0.00096105149	170
0	888	0.000969758217	171
0	892	0.000975533052	172
0	898	0.000980186533	173
0	904	0.000986786613	174
0	907	0.000988827942	175
0	910	0.000992435925	176
0	918	0.000999483539	177
0	923	0.001009232282	178
0	928	0.001016237846	179
0	932	0.001023075231	180
0	935	0.001028957344	181
0	941	0.001034636915	182
0	943	0.00103768675	183
0	947	0.001043538814	184
0	951	0.001047493544	185
0	954	0.00105408878	186
0	961	0.001063389912	187
0	963	0.0010647767	188
0	965	0.001066101004	189
0	971	0.001069949395	190
0	976	0.001079106583	191
0	978	0.001082248975	192
0	981	0.001084691049	193
0	988	0.001088711728	194
0	991	0.001090068268	195
0	993	0.001095726777	196
0	999	0.001104896374	197
0	1003	0.001110603432	198
0	1005	0.001116979158	199
0	1009	0.001121383365	200
0	1012	0.001125335257	201
0	1014	0.001128138536	202
0	1022	0.00113460378	203
0	1028	0.001139497237	204
0	1036	0.001144383301	205
0	1039	0.001150702543	206
0	1044	0.001155327444	207
0	1047	0.001160360729	208
0	1053	0.001167098973	209
0	1055	0.001169120346	210
0	1058	0.00117313983	211
0	1070	0.001181027265	212
0	1073	0.001185926774	213
0	1079	0.001187889811	214
0	1081	0.001196523164	215
0	1088	0.001202889064	216
0	1094	0.001210053474	217
0	1097	0.001211928796	218
0	1104	0.001218501441	219
0	1107	0.001220028255	220
0	1109	0.001225286965	221
0	1115	0.001230400494	222
0	1120	0.001239114618	223
0	1127	0.001243748753	224
0	1132	0.001248345759	225
0	1136	0.001252718533	226
0	1144	0.001261944454	227
0	1148	0.001266589774	228
0	1150	0.001267859327	229
0	1156	0.001272456267	230
0	1160	0.001279447367	231
0	1168	0.001286586438	232
0	1170	0.001292304093	233
0	1176	0.001302232758	234
0	1181	0.001306591702	235
0	1186	0.0013083595	236
0	1191	0.001311744857	237
0	1200	0.001320451343	238
0	1207	0.001329526837	239
0	1212	0.0013336718	240
0	1219	0.001343016706	241
0	1225	0.001350025046	242
0	1229	0.001356242174	243
0	1232	0.001359528401	244
0	1237	0.001362876542	245
0	1242	0.001366372604	246
0	1245	0.001368811212	247
0	1252	0.001375080101	248
0	1255	0.001376812427	249
0	1261	0.001386603643	250
0	1266	0.001394827872	251
0	1275	0.001399568346	252
0	1279	0.001400580796	253
0	1282	0.001409309793	254
0	1287	0.001413589957	255
0	1293	0.001421562108	256
0	1298	0.001430620214	257
0	1304	0.001433699844	258
0	1314	0.001441419103	259
0	1317	0.001446359431	260
0	1325	0.00145120157	261
0	1336	0.001459240374	262
0	1338	0.001462797149	263
0	1341	0.00146485488	264
0	1349	0.001471353759	265
0	1352	0.001476704301	266
0	1357	0.001477771516	267
0	1362	0.001485117844	268
0	1367	0.001490218051	269
0	1369	0.001494575409	270
0	1377	0.001501170398	271
0	1382	0.001505068554	272
0	1388	0.001512604599	273
0	1391	0.001514176583	274
0	1398	0.001518311794	275
0	1401	0.00152074411	276
0	1405	0.001528289359	277
0	1410	0.001534280789	278
0	1412	0.001536001339	279
0	1420	0.001539637336	280
0	1428	0.001546654789	281
0	1430	0.001551342325	282
0	1436	0.00155866889	283
0	1442	0.001567519613	284
0	1445	0.00156882625	285
0	1448	0.001571419302	286
0	1456	0.001577010454	287
0	1461	0.001580555986	288
0	1470	0.001590224762	289
0	1476	0.001598071454	290
0	1478	0.001601920337	291
0	1485	0.001610087908	292
0	1490	0.001617635831	293
0	1495	0.001625648446	294
0	1500	0.001633586301	295
0	1508	0.00164237981	296
0	1513	0.001644929571	297
0	1519	0.001654323561	298
0	1528	0.0016633211	299
0	1531	0.001670992185	300
0	1536	0.001675002449	301
0	1541	0.00168410125	302
0	1547	0.001685969308	303
0	1549	0.001690280565	304
0	1556	0.001700179306	305
0	1564	0.001705543997	306
0	1567	0.001708740289	307
0	1577	0.001716698279	308
0	1579	0.001721978581	309
0	1583	0.001725241755	310
0	1588	0.001727722549	311
0	1593	0.001731851831	312
0	1598	0.001741649491	313
0	1603	0.001746176887	314
0	1605	0.001750047143	315
0	1609	0.001752508364	316
0	1612	0.001756617915	317
0	1617	0.001763602597	318
0	1621	0.001769063148	319
0	1626	0.001774487471	320
0	1630	0.001784173275	321
0	1635	0.001787694299	322
0	1639	0.001797425002	323
0	1646	0.001805532929	324
0	1648	0.001811852517	325
0	1650	0.001812939667	326
0	1658	0.00182045514	327
0	1663	0.00182711953	328
0	1667	0.001831854824	329
0	1675	0.001840498696	330
0	1683	0.001849944404	331
0	1687	0.001854240603	332
0	1690	0.00186040743	333
0	1699	0.001866088163	334
0	1702	0.001871946483	335
0	1708	0.001875534384	336
0	1713	0.001880238924	337
0	1718	0.001886536675	338
0	1723	0.001893121174	339
0	1728	0.001901125659	340
0	1736	0.001903793796	341
0	1739	0.001905448583	342
0	1747	0.001915132908	343
0	1752	0.00192018479	344
0	1758	0.001926007007	345
0	1763	0.001929708712	346
0	1767	0.001935142404	347
0	1769	0.001936738269	348
0	1772	0.001937859847	349
0	1777	0.001942583673	350
0	1780	0.001945389412	351
0	1787	0.001953510459	352
0	1793	0.001960679193	353
0	1799	0.001969169343	354
0	1803	0.001971537588	355
0	1806	0.001975042516	356
0	1814	0.001984105717	357
0	1820	0.001990860882	358
0	1828	0.001998831391	359
0	1833	0.002007785406	360
0	1837	0.002011050047	361
0	1843	0.002020807197	362
0	1849	0.002024668278	363
0	1858	0.002034268233	364
0	1862	0.002037661384	365
0	1866	0.002045711954	366
0	1869	0.002050963678	367
0	1875	0.002056328953	368
0	1879	0.002060707107	369
0	1882	0.002062214456	370
0	1887	0.002063530897	371
0	1892	0.002069504129	372
0	1894	0.00207149883	373
0	1899	0.002073172886	374
0	1901	0.002076651713	375
0	1907	0.002082900448	376
0	1912	0.002092505556	377
0	1914	0.002096033291	378
0	1919	0.002099164401	379
0	1922	0.002100784325	380
0	1926	0.002105315195	381
0	1928	0.002107237212	382
0	1933	0.002109733818	383
0	1940	0.002117121123	384
0	1945	0.002120539504	385
0	1947	0.002124388456	386
0	1952	0.002133374724	387
0	1960	0.002142458454	388
0	1966	0.002143621321	389
0	1971	0.002151809524	390
0	1976	0.002156305161	391
0	1981	0.002166159845	392
0	1984	0.002169533754	393
0	1990	0.002177166621	394
0	1998	0.002185341906	395
0	2002	0.002192703752	396
0	2008	0.0022015055	397
0	2011	0.002204992534	398
0	2014	0.002205993079	399
0	2020	0.002212037134	400
0	2025	0.002213212296	401
0	2032	0.002222691958	402
0	2035	0.002227840143	403
0	2039	0.002236177168	404
0	2043	0.002237547786	405
0	2045	0.002239006852	406
0	2050	0.00224705632	407
0	2057	0.002256139319	408
0	2065	0.002266073322	409
0	2073	0.002271092243	410
0	2078	0.002273034868	411
0	2083	0.002274076762	412
0	2088	0.002278691956	413
0	2093	0.002282195005	414
0	2095	0.002284556077	415
0	2100	0.002288596645	416
0	2102	0.002291791779	417
0	2106	0.002296066382	418
0	2109	0.002300627085	419
0	2117	0.002308374398	420
0	2124	0.002315618121	421
0	2126	0.002321118314	422
0	2132	0.002330713734	423
0	2136	0.002334945608	424
0	2141	0.002339815579	425
0	2145	0.002345334529	426
0	2152	0.002353476635	427
0	2155	0.002356521044	428
0	2160	0.002357713272	429
0	2164	0.002367560183	430
0	2166	0.002369019661	431
0	2171	0.002374249604	432
0	2174	0.002378547923	433
0	2177	0.002379770844	434
0	2180	0.002380930762	435
0	2186	0.002383302042	436
0	2190	0.002392106073	437
0	2193	0.002400265182	438
0	2199	0.002403447963	439
0	2204	0.002410289247	440
0	2208	0.002416232382	441
0	2210	0.00241969548	442
0	2216	0.002427000238	443
0	2227	0.002434972967	444
0	2229	0.002443384212	445
0	2236	0.002448207886	446
0	2242	0.002451953306	447
0	2251	0.002456557343	448
0	2254	0.002462044145	449
0	2259	0.0024654859	450
0	2266	0.002472814601	451
0	2269	0.002478055462	452
0	2276	0.002482779484	453
0	2283	0.002490581126	454
0	2288	0.002494922709	455
0	2293	0.00250229455	456
0	2299	0.002508228857	457
0	2305	0.002517840692	458
0	2311	0.002524780427	459
0	2315	0.002534276719	460
0	2323	0.002542083304	461
0	2329	0.002544612719	462
0	2334	0.002550134259	463
0	2337	0.002554237968	464
0	2345	0.002561242887	465
0	2349	0.002570865492	466
0	2357	0.002577422967	467
0	2360	0.002582295086	468
0	2364	0.002585106487	469
0	2368	0.002594315846	470
0	2377	0.002603403585	471
0	2382	0.002606803707	472
0	2399	0.002615660622	473
0	2404	0.002625317193	474
0	2409	0.002626903259	475
0	2411	0.00262926573	476
0	2414	0.002633944694	477
0	2421	0.002643453465	478
0	2425	0.002652416348	479
0	2428	0.002654601534	480
0	2430	0.002658660121	481
0	2435	0.002662224091	482
0	2441	0.002669605548	483
0	2444	0.002673446586	484
0	2452	0.002682694357	485
0	2457	0.00268607898	486
0	2461	0.002688848797	487
0	2465	0.002696949935	488
0	2470	0.002706683628	489
0	2475	0.002713152245	490
0	2480	0.002715567778	491
0	2485	0.002717954947	492
0	2490	0.002720547366	493
0	2494	0.002725660931	494
0	2496	0.00272942669	495
0	2501	0.002735210139	496
0	2504	0.00273939451	497
0	2513	0.002749280844	498
0	2516	0.002750554683	499
0	2518	0.002752686049	500
0	2522	0.002754067325	501
0	2526	0.002762600238	502
0	2536	0.002771966807	503
0	2539	0.002773376403	504
0	2545	0.002779695383	505
0	2548	0.002782465682	506
0	2556	0.002789856207	507
0	2560	0.002797795177	508
0	2563	0.002799872706	509
0	2568	0.002809046941	510
0	2574	0.002813902348	511
0	2582	0.002823745513	512
0	2588	0.00283215558	513
0	2592	0.002837381873	514
0	2597	0.002844177846	515
0	2603	0.002849289631	516
0	2605	0.002850941437	517
0	2610	0.002859580934	518
0	2618	0.002868206703	519
0	2623	0.002878014593	520
0	2625	0.002880853957	521
0	2634	0.002888051792	522
0	2639	0.002892974739	523
0	2648	0.002899968786	524
0	2653	0.00290392937	525
0	2656	0.002907249765	526
0	2661	0.002915011447	527
0	2667	0.002922705596	528
0	2673	0.002925824938	529
0	2676	0.002928976817	530
0	2683	0.002938963556	531
0	2685	0.00294305464	532
0	2690	0.002944943479	533
0	2695	0.002952366939	534
0	2703	0.002961639478	535
0	2706	0.002966428346	536
0	2714	0.002973339891	537
0	2719	0.002980943755	538
0	2723	0.002985518192	539
0	2728	0.002993630934	540
0	2735	0.00300090238	541
0	2739	0.00300849166	542
0	2746	0.003015457368	543
0	2755	0.003024900209	544
0	2759	0.003031645475	545
0	2765	0.003039861818	546
0	2770	0.003045017603	547
0	2773	0.003050081907	548
0	2780	0.003058326327	549
0	2787	0.003066143565	550
0	2789	0.003069306196	551
0	2795	0.003077957953	552
0	2800	0.00308503975	553
0	2804	0.003090404228	554
0	2809	0.003092542837	555
0	2817	0.003102098778	556
0	2821	0.003110461473	557
0	2824	0.003111859741	558
0	2829	0.003116327365	559
0	2831	0.003117699122	560
0	2833	0.003120896535	561
0	2837	0.003124079323	562
0	2839	0.003125430748	563
0	2848	0.003135277086	564
0	2851	0.003137263213	565
0	2853	0.003139226596	566
0	2859	0.003146782862	567
0	2862	0.003150031089	568
0	2866	0.003155669987	569
0	2868	0.003159440854	570
0	2876	0.003167882023	571
0	2882	0.003170275589	572
0	2887	0.003179237187	573
0	2893	0.003187509631	574
0	2898	0.003190465142	575
0	2900	0.003194042108	576
0	2903	0.003195453202	577
0	2909	0.003200787182	578
0	2914	0.003205626527	579
0	2917	0.003207473629	580
0	2921	0.003208833783	581
0	2925	0.003218621406	582
0	2927	0.003219973029	583
0	2937	0.003228989908	584
0	2941	0.003235535555	585
0	2946	0.00323971323	586
0	2951	0.003248672148	587
0	2961	0.003256768363	588
0	2965	0.003266533403	589
0	2970	0.003272633427	590
0	2974	0.003278392101	591
0	2977	0.00328099591	592
0	2982	0.003285600338	593
0	2987	0.003290050771	594
0	2995	0.003299275953	595
0	3000	0.003303593343	596
0	3003	0.003305891504	597
0	3008	0.00331276033	598
0	3014	0.003317944236	599
0	3018	0.003326766021	600
0	3021	0.003330057859	601
0	3025	0.00333370041	602
0	3027	0.003334842054	603
0	3035	0.003340805991	604
0	3040	0.003348148581	605
0	3045	0.003357773095	606
0	3051	0.003363162976	607
0	3061	0.003373064769	608
0	3069	0.00338276819	609
0	3076	0.003391461383	610
0	3080	0.003400060326	611
0	3085	0.003404931954	612
0	3090	0.00341221151	613
0	3092	0.003415029208	614
0	3097	0.003419423657	615
0	3099	0.003421723237	616
0	3107	0.003427012765	617
0	3114	0.003433809923	618
0	3119	0.003443328937	619
0	3121	0.003445058421	620
0	3126	0.003446799988	621
0	3131	0.003449835276	622
0	3134	0.003457011984	623
0	3145	0.003465842882	624
0	3148	0.003467242873	625
0	3155	0.003476631384	626
0	3158	0.003478574892	627
0	3166	0.003486904469	628
0	3171	0.003490193062	629
0	3175	0.003496657688	630
0	3177	0.003498672452	631
0	3180	0.003500171121	632
0	3184	0.003508388736	633
0	3191	0.003516819863	634
0	3197	0.003526563183	635
0	3203	0.003528177462	636
0	3206	0.003532053795	637
0	3211	0.003535632172	638
0	3214	0.003539464767	639
0	3221	0.003548829748	640
0	3229	0.003555011524	641
0	3231	0.003562008408	642
0	3238	0.003570594698	643
0	3243	0.003572529811	644
0	3246	0.003575228848	645
0	3249	0.003576363634	646
0	3256	0.003586038805	647
0	3262	0.003588481144	648
0	3267	0.003591147192	649
0	3273	0.003596936024	650
0	3281	0.003604364723	651
0	3285	0.003610168231	652
0	3290	0.003616517639	653
0	3298	0.003625153586	654
0	3303	0.00362751696	655
0	3306	0.003631261638	656
0	3310	0.003639279371	657
0	3316	0.003642056343	658
0	3321	0.003651879719	659
0	3326	0.003654783381	660
0	3332	0.003663583708	661
0	3336	0.003670364222	662
0	3343	0.003676192323	663
0	3348	0.00368313537	664
0	3354	0.003690626153	665
0	3360	0.003694838288	666
0	3367	0.00370417356	667
0	3370	0.003706608782	668
0	3372	0.003710949739	669
0	3376	0.003714362722	670
0	3380	0.003715589808	671
0	3383	0.003723125998	672
0	3394	0.00373097797	673
0	3398	0.003738241738	674
0	3405	0.003744910855	675
0	3407	0.003745925206	676
0	3412	0.003750722145	677
0	3415	0.003757006243	678
0	3424	0.003766815956	679
0	3427	0.003769964606	680
0	3435	0.003776626647	681
0	3442	0.003786399617	682
0	3450	0.003796020705	683
0	3456	0.003798055274	684
0	3463	0.003804168734	685
0	3467	0.003807178958	686
0	3470	0.003808513588	687
0	3472	0.003814179479	688
0	3480	0.00381591335	689
0	3485	0.003821292805	690
0	3491	0.003826688787	691
0	3495	0.0038328637	692
0	3501	0.003842577606	693
0	3503	0.003846868693	694
0	3510	0.003853165573	695
0	3515	0.003856379488	696
0	3518	0.00386163996	697
0	3528	0.003870798669	698
0	3530	0.003878492015	699
0	3541	0.003888194619	700
0	3545	0.003890846159	701
0	3553	0.003897854863	702
0	3562	0.003904678991	703
0	3566	0.003911937657	704
0	3571	0.003918026669	705
0	3579	0.003926464971	706
0	3585	0.003929295534	707
0	3591	0.00393764696	708
0	3595	0.003942570342	709
0	3599	0.003946475302	710
0	3605	0.003950853704	711
0	3613	0.003960584577	712
0	3616	0.003963819066	713
0	3619	0.00396639816	714
0	3626	0.003973958689	715
0	3630	0.003980965449	716
0	3641	0.003990572955	717
0	3646	0.003997245524	718
0	3649	0.004002344121	719
0	3653	0.004011079951	720
0	3661	0.0040172088	721
0	3663	0.00401993163	722
0	3669	0.004025793635	723
0	3673	0.004032059094	724
0	3679	0.004038910897	725
0	3685	0.004047924304	726
0	3689	0.00404984295	727
0	3695	0.004056584667	728
0	3700	0.004062368776	729
0	3705	0.004068549483	730
0	3711	0.004078119425	731
0	3716	0.004080116661	732
0	3722	0.004085188994	733
0	3728	0.004094437363	734
0	3733	0.004098903848	735
0	3739	0.004108295839	736
0	3744	0.004109941606	737
0	3749	0.00411930871	738
0	3756	0.004127481274	739
0	3758	0.004129133539	740
0	3764	0.004138792617	741
0	3766	0.004143280722	742
0	3771	0.004150061164	743
0	3780	0.004158761983	744
0	3784	0.004167354296	745
0	3789	0.004173116864	746
0	3791	0.004178765867	747
0	3796	0.004180250689	748
0	3803	0.004188405026	749
0	3808	0.004197458854	750
0	3812	0.004203693973	751
0	3817	0.004212080581	752
0	3825	0.004219266747	753
0	3831	0.004229069457	754
0	3835	0.00423372762	755
0	3840	0.004240848374	756
0	3845	0.004244933319	757
0	3849	0.004249579769	758
0	3852	0.00425234187	759
0	3860	0.004259384718	760
0	3863	0.004261690464	761
0	3869	0.004270886991	762
0	3876	0.004279383887	763
0	3879	0.004286982026	764
0	3884	0.004292528047	765
0	3892	0.004300027404	766
0	3894	0.004305736795	767
0	3899	0.004309314977	768
0	3902	0.004312790035	769
0	3908	0.00431828509	770
0	3914	0.004321407411	771
0	3922	0.004331337602	772
0	3926	0.004333826951	773
0	3932	0.004342370994	774
0	3936	0.004345705358	775
0	3939	0.004347333687	776
0	3946	0.004354967231	777
0	3952	0.004364288836	778
0	3954	0.004367332995	779
0	3963	0.004375196218	780
0	3967	0.004381372218	781
0	3969	0.004385553031	782
0	3974	0.004390959401	783
0	3980	0.004396201121	784
0	3991	0.004403756532	785
0	3994	0.004406859095	786
0	3996	0.004410378405	787
0	4000	0.004414813159	788
0	4008	0.004420065019	789
0	4010	0.004426430216	790
0	4015	0.00442910612	791
0	4020	0.00443675345	792
0	4023	0.004445231629	793
0	4029	0.004452781728	794
0	4033	0.00445530479	795
0	4036	0.004457526772	796
0	4041	0.004463814169	797
0	4044	0.004465086765	798
0	4049	0.004468446847	799
0	4056	0.004475739784	800
0	4061	0.004479911448	801
0	4066	0.00448778517	802
0	4071	0.004488834764	803
0	4073	0.00449015073	804
0	4080	0.004499592865	805
0	4085	0.004504276523	806
0	4087	0.00450554293	807
0	4090	0.004509534796	808
0	4096	0.004517925934	809
0	4102	0.004525397627	810
0	4107	0.004527219063	811
0	4115	0.004536027291	812
0	4122	0.004541390791	813
0	4125	0.004547692676	814
0	4127	0.004550006715	815
0	4138	0.00455890528	816
0	4140	0.004561354171	817
0	4146	0.004563511518	818
0	4148	0.004564763116	819
0	4151	0.004568204065	820
0	4157	0.004569950304	821
0	4163	0.004575089086	822
0	4166	0.004579866109	823
0	4170	0.004585847163	824
0	4175	0.004590267474	825
0	4177	0.00459165691	826
0	4180	0.004593747114	827
0	4185	0.004600779264	828
0	4194	0.004608298243	829
0	4197	0.004613286127	830
0	4205	0.004619990553	831
0	4210	0.00462578002	832
0	4213	0.00462802183	833
0	4218	0.004630969242	834
0	4224	0.004636753694	835
0	4227	0.004640305713	836
0	4234	0.004643835324	837
0	4237	0.004648990078	838
0	4239	0.004651777629	839
0	4247	0.00465477899	840
0	4253	0.004661595877	841
0	4257	0.004665484945	842
0	4263	0.004671698121	843
0	4270	0.004677071674	844
0	4275	0.004683610485	845
0	4277	0.004685646726	846
0	4282	0.004693179769	847
0	4287	0.004697513137	848
0	4292	0.004703721236	849
0	4296	0.004707732952	850
0	4302	0.004715903297	851
0	4306	0.004719281135	852
0	4310	0.004722929961	853
0	4316	0.004729017701	854
0	4320	0.004734272569	855
0	4325	0.004738852137	856
0	4330	0.004741810277	857
0	4334	0.004748085748	858
0	4339	0.004757222562	859
0	4346	0.00476238179	860
0	4357	0.004771389649	861
0	4366	0.004778824041	862
0	4370	0.004785289215	863
0	4375	0.004793981024	864
0	4380	0.004796017356	865
0	4382	0.004798360479	866
0	4386	0.004806967621	867
0	4397	0.004812061759	868
0	4402	0.004820416996	869
0	4404	0.004828739231	870
0	4409	0.00482988466	871
0	4414	0.004836725648	872
0	4418	0.004846600176	873
0	4424	0.00485325947	874
0	4429	0.004859353494	875
0	4431	0.004866134563	876
0	4436	0.004872393187	877
0	4442	0.004876099729	878
0	4448	0.004885775912	879
0	4452	0.004886872912	880
0	4456	0.004890685977	881
0	4463	0.004897554093	882
0	4468	0.004902259118	883
0	4474	0.004909345582	884
0	4479	0.004914121849	885
0	4482	0.004915595782	886
0	4486	0.00492373304	887
0	4494	0.004928232696	888
0	4499	0.004933674941	889
0	4502	0.004935896177	890
0	4506	0.004938726387	891
0	4508	0.004942903715	892
0	4516	0.004951485857	893
0	4519	0.00495639755	894
0	4525	0.004959303358	895
0	4529	0.004966323286	896
0	4534	0.004976167976	897
0	4536	0.004979790407	898
0	4541	0.004986967027	899
0	4545	0.00499287971	900
0	4547	0.004994538486	901
0	4551	0.004998415021	902
0	4556	0.005003947401	903
0	4562	0.005010653004	904
0	4564	0.005013021477	905
0	4569	0.005015519807	906
0	4571	0.005018119256	907
0	4576	0.005020734153	908
0	4580	0.0050240199	909
0	4582	0.00502641241	910
0	4584	0.005028463673	911
0	4592	0.005034620635	912
0	4596	0.005041436264	913
0	4602	0.005050576629	914
0	4610	0.005060576305	915
0	4617	0.005069305054	916
0	4624	0.005078443641	917
0	4629	0.005082280357	918
0	4631	0.005085662262	919
0	4640	0.005091255868	920
0	4643	0.005093471859	921
0	4647	0.005097947104	922
0	4654	0.005105887419	923
0	4658	0.005115790266	924
0	4663	0.00512464656	925
0	4669	0.005133651793	926
0	4674	0.005139040419	927
0	4679	0.005142950034	928
0	4684	0.005152817419	929
0	4692	0.00515873321	930
0	4695	0.005161409942	931
0	4703	0.005168920305	932
0	4706	0.005172598573	933
0	4711	0.005179458796	934
0	4715	0.005187417965	935
0	4720	0.005192833531	936
0	4728	0.005202136861	937
0	4733	0.005210276195	938
0	4737	0.005215126928	939
0	4742	0.005219334086	940
0	4744	0.005222114935	941
0	4747	0.005223530191	942
0	4757	0.005233529732	943
0	4760	0.005240843286	944
0	4768	0.005249580943	945
0	4775	0.005256796825	946
0	4777	0.005258081637	947
0	4780	0.00526257894	948
0	4783	0.005264367086	949
0	4791	0.005273916314	950
0	4794	0.005275542598	951
0	4798	0.005278463246	952
0	4801	0.005281252536	953
0	4807	0.005283998919	954
0	4810	0.005287194359	955
0	4815	0.005293516665	956
0	4818	0.005295567342	957
0	4825	0.005301773406	958
0	4835	0.005306370993	959
0	4837	0.005310537071	960
0	4841	0.005316721762	961
0	4845	0.005324179134	962
0	4849	0.005329120946	963
0	4852	0.00533310829	964
0	4858	0.005338232759	965
0	4865	0.005345507707	966
0	4868	0.00535077373	967
0	4872	0.00535415054	968
0	4880	0.005360379697	969
0	4885	0.00536693562	970
0	4892	0.005376636825	971
0	4897	0.005379913439	972
0	4904	0.005388530253	973
0	4907	0.005389911744	974
0	4912	0.005396054169	975
0	4917	0.005399848739	976
0	4920	0.00540414624	977
0	4929	0.005412436275	978
0	4938	0.005422271367	979
0	4942	0.005431902022	980
0	4945	0.005433786166	981
0	4951	0.005441790238	982
0	4959	0.005446377437	983
0	4965	0.005451954026	984
0	4968	0.005454109535	985
0	4970	0.005455983782	986
0	4974	0.005458196937	987
0	4979	0.005466402314	988
0	4984	0.00546824526	989
0	4988	0.005476602839	990
0	4993	0.005482477536	991
0	4999	0.005489677628	992
0	5003	0.005495210904	993
0	5008	0.005501254267	994
0	5013	0.005504839903	995
0	5022	0.005514315087	996
0	5024	0.005517930428	997
0	5029	0.005524596993	998
0	5035	0.005532944707	999
0	5038	0.005534472369	1000
0	5041	0.005536281729	1001
0	5046	0.005538313962	1002
0	5050	0.005543179161	1003
0	5053	0.00554868599	1004
0	5057	0.005550844687	1005
0	5062	0.005555118012	1006
0	5066	0.005564869591	1007
0	5068	0.005567472358	1008
0	5076	0.005575759139	1009
0	5081	0.005580418312	1010
0	5088	0.00558760347	1011
0	5093	0.005593804244	1012
0	5098	0.005597290666	1013
0	5105	0.005602594607	1014
0	5110	0.005608866178	1015
0	5115	0.005617914311	1016
0	5124	0.005624219038	1017
0	5129	0.005631845385	1018
0	5135	0.005639896955	1019
0	5143	0.005644598992	1020
0	5151	0.005649889924	1021
0	5154	0.005651242059	1022
0	5159	0.005659780368	1023
0	5161	0.005664808859	1024
0	5171	0.005673360122	1025
0	5179	0.005682670192	1026
0	5181	0.005684589835	1027
0	5188	0.005692809526	1028
0	5192	0.005699543213	1029
0	5197	0.005704970145	1030
0	5200	0.005709644021	1031
0	5210	0.005715777951	1032
0	5213	0.005718936673	1033
0	5220	0.005724649133	1034
0	5229	0.005733076673	1035
0	5232	0.005737045199	1036
0	5237	0.005743152167	1037
0	5240	0.005748276677	1038
0	5251	0.005757679765	1039
0	5257	0.005767350135	1040
0	5260	0.005769258472	1041
0	5262	0.005771378618	1042
0	5269	0.005775878618	1043
0	5274	0.005785329302	1044
0	5279	0.005794059014	1045
0	5285	0.00580024156	1046
0	5290	0.005804782026	1047
0	5293	0.005808595497	1048
0	5298	0.0058154136	1049
0	5301	0.005817251204	1050
0	5306	0.005821771149	1051
0	5308	0.005826309847	1052
0	5313	0.005832337094	1053
0	5321	0.005838698115	1054
0	5329	0.005843956848	1055
0	5334	0.005847437836	1056
0	5340	0.005854890612	1057
0	5345	0.005860986969	1058
0	5349	0.005865160334	1059
0	5354	0.005874518116	1060
0	5362	0.005884076154	1061
0	5367	0.005888918635	1062
0	5374	0.00589788254	1063
0	5379	0.005904099753	1064
0	5387	0.005911050092	1065
0	5391	0.005913229281	1066
0	5397	0.005920785019	1067
0	5399	0.005924283143	1068
0	5404	0.005925950343	1069
0	5409	0.005928750253	1070
0	5414	0.00593337132	1071
0	5421	0.005942536959	1072
0	5430	0.005948499651	1073
0	5436	0.005956226087	1074
0	5444	0.005965661729	1075
0	5450	0.005974224178	1076
0	5456	0.005982977416	1077
0	5458	0.005985774472	1078
0	5464	0.005989054476	1079
0	5467	0.005990855567	1080
0	5471	0.006000457605	1081
0	5477	0.006009952386	1082
0	5483	0.006014934128	1083
0	5488	0.006021585383	1084
0	5492	0.006028421106	1085
0	5494	0.006029436746	1086
0	5501	0.006036420893	1087
0	5506	0.006045702995	1088
0	5511	0.006054687783	1089
0	5515	0.006058255807	1090
0	5518	0.006062419393	1091
0	5521	0.006063659883	1092
0	5526	0.006067819547	1093
0	5529	0.006069700816	1094
0	5539	0.006079331981	1095
0	5544	0.006088002043	1096
0	5549	0.006096657648	1097
0	5553	0.006103882638	1098
0	5559	0.006110074466	1099
0	5567	0.006119053012	1100
0	5570	0.006122512283	1101
0	5578	0.006129734081	1102
0	5580	0.00613149147	1103
0	5582	0.006134883431	1104
0	5585	0.006136785097	1105
0	5592	0.006145278394	1106
0	5597	0.006153995952	1107
0	5602	0.006156475345	1108
0	5604	0.006162383171	1109
0	5609	0.00616798943	1110
0	5616	0.006177413961	1111
0	5624	0.00618369837	1112
0	5627	0.006186733248	1113
0	5632	0.006190528123	1114
0	5638	0.006198415504	1115
0	5646	0.006206598602	1116
0	5652	0.006210954928	1117
0	5657	0.006217798352	1118
0	5663	0.006221985606	1119
0	5668	0.006230281873	1120
0	5677	0.006237341223	1121
0	5680	0.006242294698	1122
0	5685	0.006245654305	1123
0	5690	0.006247472638	1124
0	5694	0.006253321405	1125
0	5697	0.00625878518	1126
0	5703	0.006264034545	1127
0	5710	0.006269714003	1128
0	5712	0.006273461506	1129
0	5714	0.006276135354	1130
0	5718	0.006283853952	1131
0	5722	0.006287657137	1132
0	5730	0.006292118805	1133
0	5732	0.006299106602	1134
0	5737	0.006301746381	1135
0	5745	0.006309022718	1136
0	5753	0.006317613191	1137
0	5755	0.00632637297	1138
0	5759	0.006331425584	1139
0	5765	0.006334961365	1140
0	5770	0.00634262434	1141
0	5776	0.006347283139	1142
0	5782	0.006352807309	1143
0	5786	0.006358743839	1144
0	5792	0.006368371161	1145
0	5795	0.006373902471	1146
0	5800	0.006379253833	1147
0	5804	0.006388916694	1148
0	5811	0.006396777358	1149
0	5816	0.006406090225	1150
0	5819	0.006409283991	1151
0	5821	0.006410837234	1152
0	5826	0.006415681195	1153
0	5828	0.006417873974	1154
0	5834	0.006420852976	1155
0	5837	0.006428643896	1156
0	5841	0.006431731122	1157
0	5848	0.006439207295	1158
0	5855	0.006448993107	1159
0	5860	0.006454866303	1160
0	5865	0.006464608838	1161
0	5869	0.006473794859	1162
0	5875	0.006481654954	1163
0	5885	0.006487957067	1164
0	5893	0.006496480748	1165
0	5895	0.006500954233	1166
0	5903	0.006508311579	1167
0	5907	0.006511466892	1168
0	5913	0.006514193008	1169
0	5920	0.00652241174	1170
0	5925	0.006525461162	1171
0	5928	0.006531528377	1172
0	5935	0.006536487468	1173
0	5944	0.006540810478	1174
0	5951	0.006549170032	1175
0	5957	0.006558388387	1176
0	5960	0.006561051565	1177
0	5970	0.006569503568	1178
0	5972	0.006572754478	1179
0	5979	0.006580813651	1180
0	5981	0.006582708862	1181
0	5986	0.006592445261	1182
0	5989	0.006593738168	1183
0	5997	0.006602627893	1184
0	6003	0.006605014199	1185
0	6005	0.006606677019	1186
0	6011	0.006612779087	1187
0	6016	0.006619273246	1188
0	6021	0.00662395273	1189
0	6025	0.00663371661	1190
0	6034	0.00664334396	1191
0	6039	0.00664859758	1192
0	6047	0.006657066765	1193
0	6049	0.006659570568	1194
0	6052	0.006663607331	1195
0	6057	0.006669137232	1196
0	6062	0.006674807906	1197
0	6067	0.006678227899	1198
0	6070	0.006681009067	1199
0	6074	0.006690690835	1200
0	6078	0.006692045327	1201
0	6082	0.006694655566	1202
0	6087	0.006701739344	1203
0	6093	0.006711498644	1204
0	6099	0.006719407116	1205
0	6110	0.006728292728	1206
0	6113	0.006731043811	1207
0	6117	0.006732683602	1208
0	6122	0.006742190624	1209
0	6125	0.006744051617	1210
0	6130	0.006750676698	1211
0	6134	0.006754106691	1212
0	6139	0.006761644897	1213
0	6145	0.006765906614	1214
0	6151	0.006774882343	1215
0	6155	0.006779982297	1216
0	6160	0.006785600563	1217
0	6164	0.006793787587	1218
0	6170	0.006800425011	1219
0	6174	0.006805362024	1220
0	6176	0.006809295786	1221
0	6179	0.006811102752	1222
0	6184	0.006814322629	1223
0	6188	0.006818308984	1224
0	6191	0.006822061486	1225
0	6195	0.006828257156	1226
0	6200	0.006836534522	1227
0	6206	0.006843587064	1228
0	6214	0.006850170854	1229
0	6217	0.006851808259	1230
0	6223	0.006854691153	1231
0	6228	0.006858620902	1232
0	6232	0.006861604998	1233
0	6237	0.006865756993	1234
0	6240	0.006869840887	1235
0	6247	0.006877110113	1236
0	6251	0.006881890066	1237
0	6254	0.00688293692	1238
0	6256	0.006884153623	1239
0	6261	0.006891271064	1240
0	6263	0.006892447558	1241
0	6271	0.006902358652	1242
0	6278	0.00691173131	1243
0	6281	0.006913635234	1244
0	6286	0.006918191888	1245
0	6291	0.006922113288	1246
0	6294	0.006925170853	1247
0	6299	0.006934684135	1248
0	6302	0.006938802843	1249
0	6309	0.006944965905	1250
0	6315	0.006954579293	1251
0	6317	0.006957453311	1252
0	6324	0.006966602958	1253
0	6327	0.006970645883	1254
0	6333	0.006977842489	1255
0	6341	0.006982389877	1256
0	6344	0.006990821528	1257
0	6351	0.007000020965	1258
0	6359	0.00700788755	1259
0	6362	0.007011895148	1260
0	6367	0.007013036453	1261
0	6377	0.007020709539	1262
0	6383	0.007026406565	1263
0	6391	0.007032634495	1264
0	6393	0.007034102763	1265
0	6398	0.007039983659	1266
0	6405	0.007049798319	1267
0	6410	0.00705930052	1268
0	6416	0.007064047825	1269
0	6418	0.007066443798	1270
0	6424	0.007076296158	1271
0	6428	0.007081358429	1272
0	6434	0.007087356248	1273
0	6443	0.00709565705	1274
0	6449	0.007099308664	1275
0	6456	0.007103246446	1276
0	6463	0.007112413224	1277
0	6468	0.007118871467	1278
0	6473	0.007124134666	1279
0	6476	0.007127122343	1280
0	6481	0.007136065772	1281
0	6486	0.007143801665	1282
0	6492	0.007147785793	1283
0	6499	0.007154401892	1284
0	6501	0.007159159563	1285
0	6509	0.00716567282	1286
0	6514	0.007167176397	1287
0	6519	0.007176115809	1288
0	6523	0.007182475785	1289
0	6530	0.007190063927	1290
0	6533	0.007194037105	1291
0	6539	0.007203025685	1292
0	6542	0.007206948758	1293
0	6549	0.007210655588	1294
0	6554	0.007217342422	1295
0	6557	0.007222516915	1296
0	6564	0.007229173146	1297
0	6575	0.007237924849	1298
0	6581	0.007243570925	1299
0	6587	0.007252054951	1300
0	6593	0.007260083979	1301
0	6595	0.007265421207	1302
0	6603	0.007269804869	1303
0	6609	0.007274784774	1304
0	6612	0.007276834492	1305
0	6617	0.007280391013	1306
0	6622	0.007286297824	1307
0	6627	0.007292163255	1308
0	6632	0.007298022271	1309
0	6634	0.007299954196	1310
0	6639	0.007305754347	1311
0	6646	0.007313503383	1312
0	6651	0.007319030521	1313
0	6655	0.007326626584	1314
0	6658	0.007329207673	1315
0	6662	0.007337944103	1316
0	6671	0.00734648972	1317
0	6673	0.007350876793	1318
0	6682	0.007355276621	1319
0	6684	0.007357355756	1320
0	6690	0.007362622714	1321
0	6692	0.00736791677	1322
0	6697	0.007371550548	1323
0	6699	0.007375697958	1324
0	6707	0.007381229438	1325
0	6711	0.007391113262	1326
0	6715	0.007400640038	1327
0	6723	0.007409212703	1328
0	6725	0.007412732392	1329
0	6733	0.00742210036	1330
0	6738	0.007430550678	1331
0	6742	0.007434653153	1332
0	6751	0.007442987891	1333
0	6761	0.007448539134	1334
0	6763	0.007451938927	1335
0	6768	0.007458215873	1336
0	6771	0.007461708118	1337
0	6776	0.00746418724	1338
0	6778	0.007469026715	1339
0	6788	0.007476427658	1340
0	6795	0.007483818984	1341
0	6797	0.007487219526	1342
0	6799	0.007489578879	1343
0	6806	0.007494228755	1344
0	6809	0.007495799366	1345
0	6811	0.007502258131	1346
0	6817	0.007505112236	1347
0	6824	0.00751278549	1348
0	6827	0.007515596554	1349
0	6836	0.007518972572	1350
0	6840	0.007528907953	1351
0	6846	0.007537300916	1352
0	6852	0.007543699337	1353
0	6858	0.007547131614	1354
0	6863	0.007555234272	1355
0	6866	0.007557277208	1356
0	6868	0.007560598064	1357
0	6873	0.007563654411	1358
0	6879	0.007566234608	1359
0	6881	0.007573486428	1360
0	6887	0.007577122043	1361
0	6892	0.007582120908	1362
0	6900	0.007591112721	1363
0	6905	0.007598517295	1364
0	6911	0.007606017674	1365
0	6914	0.007610915425	1366
0	6920	0.007617609253	1367
0	6927	0.007626540412	1368
0	6932	0.00763640591	1369
0	6936	0.007640120009	1370
0	6941	0.007645280425	1371
0	6943	0.007647040486	1372
0	6945	0.007648901801	1373
0	6951	0.007653731258	1374
0	6957	0.007660107495	1375
0	6962	0.007666044887	1376
0	6966	0.007669612195	1377
0	6974	0.007675341341	1378
0	6976	0.007677384172	1379
0	6979	0.007678585558	1380
0	6985	0.007684672738	1381
0	6987	0.007687392649	1382
0	6993	0.007696383845	1383
0	6998	0.007702189736	1384
0	7002	0.007708251605	1385
0	7010	0.007717336894	1386
0	7014	0.007719668293	1387
0	7019	0.007725298261	1388
0	7028	0.007730194352	1389
0	7033	0.007734299867	1390
0	7036	0.00773556217	1391
0	7044	0.007740533318	1392
0	7046	0.00774417044	1393
0	7049	0.007747471918	1394
0	7054	0.007751449184	1395
0	7062	0.007757549021	1396
0	7067	0.007764279993	1397
0	7074	0.007770355429	1398
0	7081	0.007777874189	1399
0	7086	0.007784202172	1400
0	7088	0.007789268793	1401
0	7091	0.00779043605	1402
0	7098	0.007800125135	1403
0	7102	0.00780507428	1404
0	7107	0.007812924767	1405
0	7109	0.007818682581	1406
0	7114	0.007825077299	1407
0	7118	0.007828750812	1408
0	7123	0.007835753271	1409
0	7130	0.007843912776	1410
0	7132	0.007845573784	1411
0	7140	0.007855321539	1412
0	7145	0.007860778145	1413
0	7150	0.00786351695	1414
0	7156	0.007867254674	1415
0	7161	0.007872006632	1416
0	7163	0.00787307928	1417
0	7168	0.007875868595	1418
0	7177	0.00788447723	1419
0	7182	0.007893944111	1420
0	7186	0.007897308295	1421
0	7191	0.007905231939	1422
0	7196	0.007912230244	1423
0	7199	0.00791703565	1424
0	7204	0.007918687544	1425
0	7210	0.007923115501	1426
0	7215	0.007928332719	1427
0	7217	0.007933839706	1428
0	7222	0.007936827483	1429
0	7227	0.0079396477	1430
0	7232	0.007942416158	1431
0	7237	0.007949155912	1432
0	7243	0.007958995849	1433
0	7251	0.007966737177	1434
0	7256	0.007973206221	1435
0	7258	0.007975155695	1436
0	7262	0.007980677581	1437
0	7267	0.007988600612	1438
0	7275	0.007994796072	1439
0	7283	0.008003966492	1440
0	7289	0.00801294378	1441
0	7294	0.00801633335	1442
0	7297	0.008021025498	1443
0	7304	0.008026415704	1444
0	7307	0.008027800355	1445
0	7309	0.008029746273	1446
0	7314	0.008030869807	1447
0	7318	0.008037523334	1448
0	7326	0.008046955247	1449
0	7333	0.008056073862	1450
0	7336	0.008062203896	1451
0	7340	0.008064087445	1452
0	7345	0.008073431983	1453
0	7353	0.008083303126	1454
0	7355	0.008090174986	1455
0	7359	0.008095751662	1456
0	7366	0.008098705885	1457
0	7369	0.008099847242	1458
0	7371	0.008105737093	1459
0	7378	0.008110810839	1460
0	7380	0.008112621446	1461
0	7385	0.008119345612	1462
0	7390	0.008121774526	1463
0	7392	0.008123615535	1464
0	7400	0.008130684119	1465
0	7407	0.00813960091	1466
0	7411	0.008142476802	1467
0	7414	0.008144366648	1468
0	7418	0.00814729059	1469
0	7420	0.008150843162	1470
0	7423	0.008152400755	1471
0	7429	0.00816061759	1472
0	7433	0.008168918092	1473
0	7437	0.008175732294	1474
0	7442	0.008179547951	1475
0	7444	0.00818222085	1476
0	7448	0.008187435835	1477
0	7453	0.008194530662	1478
0	7458	0.008201531453	1479
0	7464	0.008204490975	1480
0	7472	0.008213727921	1481
0	7479	0.008219567558	1482
0	7485	0.008228307741	1483
0	7491	0.008234742507	1484
0	7497	0.008238624837	1485
0	7500	0.00824409067	1486
0	7505	0.008248748674	1487
0	7512	0.008256804597	1488
0	7521	0.008266393688	1489
0	7526	0.008274504403	1490
0	7530	0.008280190847	1491
0	7534	0.008288815081	1492
0	7539	0.00829552916	1493
0	7541	0.008297982495	1494
0	7552	0.008307755467	1495
0	7557	0.008317721256	1496
0	7565	0.008325571691	1497
0	7570	0.008330686276	1498
0	7572	0.008333869735	1499
0	7580	0.008341362768	1500
0	7588	0.008347509411	1501
0	7596	0.008355183211	1502
0	7601	0.008361270419	1503
0	7603	0.008364518357	1504
0	7608	0.00837019655	1505
0	7614	0.008375676063	1506
0	7619	0.008380465909	1507
0	7625	0.008384902442	1508
0	7628	0.008388344292	1509
0	7633	0.008394358442	1510
0	7636	0.00839651299	1511
0	7644	0.008404326227	1512
0	7646	0.00840580358	1513
0	7651	0.008412281695	1514
0	7659	0.00841984367	1515
0	7665	0.008424832044	1516
0	7669	0.008433909622	1517
0	7673	0.008438342765	1518
0	7678	0.008443037472	1519
0	7680	0.008447025212	1520
0	7685	0.008449291614	1521
0	7690	0.008455546834	1522
0	7696	0.008462952423	1523
0	7702	0.008468292612	1524
0	7705	0.008473763689	1525
0	7710	0.008475059279	1526
0	7716	0.00848052154	1527
0	7721	0.008489151784	1528
0	7727	0.008494897775	1529
0	7732	0.008503692473	1530
0	7734	0.008506725978	1531
0	7738	0.00850880309	1532
0	7740	0.008509830915	1533
0	7746	0.008516609862	1534
0	7751	0.008522449621	1535
0	7757	0.008528783995	1536
0	7762	0.00853704034	1537
0	7767	0.008545754014	1538
0	7772	0.008548674609	1539
0	7777	0.008552336271	1540
0	7788	0.008562089848	1541
0	7793	0.008563908115	1542
0	7796	0.008568810937	1543
0	7801	0.008572790016	1544
0	7806	0.008578230603	1545
0	7809	0.008580984256	1546
0	7815	0.008584562273	1547
0	7818	0.008587597563	1548
0	7823	0.008594644422	1549
0	7833	0.008600493975	1550
0	7843	0.008608684561	1551
0	7846	0.00861056781	1552
0	7852	0.008618233088	1553
0	7859	0.008622451387	1554
0	7865	0.008631733717	1555
0	7873	0.008638294401	1556
0	7879	0.008644773928	1557
0	7884	0.008652106318	1558
0	7889	0.00865616782	1559
0	7896	0.008665911598	1560
0	7900	0.008670907357	1561
0	7909	0.008678256116	1562
0	7915	0.00868281286	1563
0	7917	0.008686237377	1564
0	7922	0.008695385583	1565
0	7928	0.008697556905	1566
0	7933	0.00870091296	1567
0	7938	0.008706240605	1568
0	7942	0.008713659765	1569
0	7949	0.008720091012	1570
0	7951	0.008723985255	1571
0	7953	0.008727468633	1572
0	7960	0.008735714975	1573
0	7969	0.008742211136	1574
0	7974	0.008746379285	1575
0	7979	0.008751769664	1576
0	7984	0.008755473039	1577
0	7989	0.008759999042	1578
0	7996	0.008761743553	1579
0	7998	0.008763250352	1580
0	8001	0.008767258885	1581
0	8009	0.008776060273	1582
0	8014	0.00878096977	1583
0	8018	0.008787193178	1584
0	8022	0.008793499474	1585
0	8026	0.008799614383	1586
0	8030	0.008808806399	1587
0	8034	0.008811717516	1588
0	8040	0.008816170569	1589
0	8047	0.008825612807	1590
0	8054	0.008829475764	1591
0	8061	0.008836084116	1592
0	8066	0.008839975481	1593
0	8069	0.008841434598	1594
0	8074	0.00884678699	1595
0	8080	0.008856370094	1596
0	8082	0.008857763963	1597
0	8087	0.008862101113	1598
0	8095	0.008869773708	1599
0	8101	0.008876242785	1600
0	8104	0.008880585471	1601
0	8106	0.008882100116	1602
0	8112	0.008885320099	1603
0	8117	0.008889195719	1604
0	8123	0.008896310618	1605
0	8132	0.008905289179	1606
0	8136	0.008907227217	1607
0	8139	0.008908942878	1608
0	8144	0.008914769244	1609
0	8150	0.008923984077	1610
0	8157	0.00893244869	1611
0	8159	0.008935199318	1612
0	8165	0.008941440479	1613
0	8173	0.00894944901	1614
0	8176	0.008953736472	1615
0	8181	0.008957479586	1616
0	8184	0.00895925405	1617
0	8189	0.00896708477	1618
0	8194	0.008970381174	1619
0	8199	0.008975951546	1620
0	8203	0.008984266318	1621
0	8205	0.008987859492	1622
0	8216	0.00899579778	1623
0	8219	0.009004612304	1624
0	8227	0.009013156031	1625
0	8232	0.009017892119	1626
0	8237	0.009022348783	1627
0	8240	0.009028715779	1628
0	8246	0.009034295322	1629
0	8256	0.009040381574	1630
0	8259	0.009043240075	1631
0	8264	0.009049366197	1632
0	8270	0.009059297631	1633
0	8275	0.009065093426	1634
0	8280	0.009069222292	1635
0	8283	0.009070359352	1636
0	8287	0.009073593439	1637
0	8290	0.009078062945	1638
0	8295	0.009087019741	1639
0	8301	0.009089961261	1640
0	8304	0.009091899644	1641
0	8306	0.009093792293	1642
0	8314	0.009103330044	1643
0	8321	0.009110575732	1644
0	8326	0.00911763717	1645
0	8330	0.009122421905	1646
0	8335	0.009131889689	1647
0	8341	0.009134640803	1648
0	8343	0.009137016455	1649
0	8346	0.0091431262	1650
0	8354	0.009146245281	1651
0	8357	0.009153937789	1652
0	8361	0.009155555185	1653
0	8366	0.009163421531	1654
0	8368	0.009166928124	1655
0	8373	0.00917365598	1656
0	8375	0.0091749138	1657
0	8380	0.009178783705	1658
0	8385	0.009183240587	1659
0	8390	0.009190088705	1660
0	8393	0.009192672842	1661
0	8399	0.009200214533	1662
0	8404	0.009207684266	1663
0	8410	0.0092149505	1664
0	8413	0.009217826985	1665
0	8419	0.009221670016	1666
0	8422	0.009227593707	1667
0	8429	0.009232992922	1668
0	8432	0.009236244351	1669
0	8436	0.009237894581	1670
0	8441	0.009241813327	1671
0	8444	0.00924283859	1672
0	8449	0.009250000119	1673
0	8453	0.009256242381	1674
0	8458	0.009265625937	1675
0	8462	0.009271500718	1676
0	8465	0.009275260855	1677
0	8469	0.009281289995	1678
0	8474	0.009286498386	1679
0	8479	0.009291179595	1680
0	8483	0.009295422768	1681
0	8491	0.009302389027	1682
0	8493	0.009305106896	1683
0	8499	0.009311660658	1684
0	8503	0.009320105633	1685
0	8507	0.009327076029	1686
0	8514	0.009335176983	1687
0	8517	0.009339598152	1688
0	8524	0.009347709658	1689
0	8528	0.009355886906	1690
0	8532	0.009361817773	1691
0	8536	0.009368735726	1692
0	8541	0.009373803267	1693
0	8546	0.009377574693	1694
0	8549	0.009380606892	1695
0	8551	0.009384285155	1696
0	8555	0.009386018042	1697
0	8557	0.009393776668	1698
0	8562	0.009400166896	1699
0	8569	0.009407710988	1700
0	8574	0.009413056798	1701
0	8577	0.009415184471	1702
0	8579	0.009417091792	1703
0	8582	0.009418922935	1704
0	8588	0.009421559833	1705
0	8591	0.009422707164	1706
0	8593	0.009428192408	1707
0	8598	0.009434789621	1708
0	8604	0.009444649238	1709
0	8608	0.009448158768	1710
0	8610	0.009452359836	1711
0	8616	0.009455420323	1712
0	8618	0.0094570226	1713
0	8623	0.009459318346	1714
0	8627	0.00946734895	1715
0	8629	0.009468585997	1716
0	8632	0.009471883062	1717
0	8638	0.009477210528	1718
0	8642	0.009483867548	1719
0	8644	0.009488227026	1720
0	8650	0.009493933888	1721
0	8658	0.00950355761	1722
0	8662	0.009512462149	1723
0	8667	0.00952142136	1724
0	8673	0.009527550377	1725
0	8678	0.009533610105	1726
0	8686	0.009538288209	1727
0	8692	0.009546296859	1728
0	8697	0.009554666654	1729
0	8702	0.009559526739	1730
0	8705	0.009562065673	1731
0	8710	0.009569350426	1732
0	8716	0.009574261395	1733
0	8722	0.009577893272	1734
0	8728	0.009582964722	1735
0	8730	0.009585955638	1736
0	8734	0.009587413376	1737
0	8736	0.009593634503	1738
0	8748	0.009602911366	1739
0	8756	0.009612672015	1740
0	8758	0.009620249783	1741
0	8763	0.009623154151	1742
0	8769	0.009631186351	1743
0	8775	0.009637571965	1744
0	8781	0.009645813708	1745
0	8784	0.009649684727	1746
0	8788	0.009658064357	1747
0	8793	0.009664813716	1748
0	8795	0.009666496406	1749
0	8801	0.009676151103	1750
0	8809	0.009684183171	1751
0	8812	0.009693087482	1752
0	8817	0.009697023862	1753
0	8821	0.0097004226	1754
0	8825	0.009706622218	1755
0	8830	0.009710610218	1756
0	8836	0.009717448305	1757
0	8844	0.009724006123	1758
0	8847	0.009726631018	1759
0	8852	0.009729536261	1760
0	8857	0.009738513544	1761
0	8860	0.00974105209	1762
0	8868	0.009748569605	1763
0	8874	0.009756560482	1764
0	8876	0.009761203301	1765
0	8885	0.009771168447	1766
0	8890	0.009776960817	1767
0	8895	0.00978445065	1768
0	8898	0.009786713254	1769
0	8901	0.009791386428	1770
0	8907	0.009796073543	1771
0	8912	0.009804676519	1772
0	8917	0.009812952692	1773
0	8921	0.009817950199	1774
0	8927	0.009822721795	1775
0	8935	0.009831041052	1776
0	8939	0.009838803578	1777
0	8947	0.009848514276	1778
0	8950	0.009852602745	1779
0	8953	0.009854624723	1780
0	8957	0.009863295287	1781
0	8964	0.009872322576	1782
0	8969	0.009878769876	1783
0	8971	0.009885196531	1784
0	8975	0.009887479041	1785
0	8979	0.009897326978	1786
0	8988	0.009900798476	1787
0	8993	0.009908417719	1788
0	9000	0.009914822725	1789
0	9002	0.009923203338	1790
0	9013	0.009930339231	1791
0	9021	0.009940254197	1792
0	9027	0.009946497317	1793
0	9032	0.00995202054	1794
0	9035	0.009953155202	1795
0	9046	0.009962659116	1796
0	9051	0.009971626991	1797
0	9056	0.009976029199	1798
0	9061	0.009985713642	1799
0	9063	0.00998909416	1800
0	9072	0.009999062206	1801
0	9077	0.010006420444	1802
0	9080	0.010010458467	1803
0	9088	0.010019255026	1804
0	9093	0.01002800552	1805
0	9101	0.010037301329	1806
0	9103	0.010039823857	1807
0	9107	0.010045114745	1808
0	9110	0.010048402785	1809
0	9115	0.010051804845	1810
0	9117	0.010053512677	1811
0	9119	0.010055274264	1812
0	9129	0.010063148797	1813
0	9134	0.010069154898	1814
0	9140	0.010078978591	1815
0	9146	0.010082477392	1816
0	9150	0.010091984916	1817
0	9156	0.010096422978	1818
0	9161	0.01010488412	1819
0	9163	0.010108252765	1820
0	9167	0.010112633101	1821
0	9173	0.010119690614	1822
0	9178	0.010128755084	1823
0	9184	0.010137396169	1824
0	9188	0.010141199523	1825
0	9191	0.010143174671	1826
0	9196	0.010145840047	1827
0	9203	0.010153232351	1828
0	9208	0.010156603275	1829
0	9211	0.01015939126	1830
0	9214	0.010161040402	1831
0	9220	0.010167417898	1832
0	9225	0.010171079433	1833
0	9233	0.010180803077	1834
0	9238	0.010189178626	1835
0	9241	0.010191657111	1836
0	9248	0.010198204004	1837
0	9250	0.010205269301	1838
0	9256	0.010213394988	1839
0	9259	0.010217446316	1840
0	9263	0.010223885086	1841
0	9269	0.010227452677	1842
0	9273	0.010234960514	1843
0	9275	0.010238570427	1844
0	9280	0.010247380896	1845
0	9286	0.010255878722	1846
0	9291	0.010259943873	1847
0	9298	0.010268618883	1848
0	9304	0.010276576033	1849
0	9313	0.010286259811	1850
0	9318	0.010294185929	1851
0	9323	0.01030242026	1852
0	9329	0.010311239909	1853
0	9335	0.010315158051	1854
0	9341	0.010322230076	1855
0	9345	0.010329509693	1856
0	9350	0.010332621464	1857
0	9357	0.010340927431	1858
0	9359	0.010342478131	1859
0	9365	0.01035171035	1860
0	9369	0.010358667101	1861
0	9371	0.010362931009	1862
0	9379	0.010371717863	1863
0	9385	0.010378703326	1864
0	9391	0.010386580818	1865
0	9395	0.01039272254	1866
0	9404	0.010401536616	1867
0	9409	0.010406562696	1868
0	9414	0.010412083298	1869
0	9417	0.010415677703	1870
0	9422	0.010419811697	1871
0	9428	0.010421769338	1872
0	9434	0.010431291129	1873
0	9437	0.010433501777	1874
0	9439	0.010435356703	1875
0	9447	0.010441988957	1876
0	9453	0.010450523343	1877
0	9463	0.010459501805	1878
0	9465	0.010461611219	1879
0	9469	0.010470798668	1880
0	9475	0.01047880944	1881
0	9477	0.010484277923	1882
0	9481	0.010489346471	1883
0	9483	0.010493812425	1884
0	9489	0.01049905963	1885
0	9494	0.010502122291	1886
0	9496	0.010507425533	1887
0	9501	0.010512071517	1888
0	9505	0.010518955208	1889
0	9510	0.010525657324	1890
0	9512	0.010529169283	1891
0	9517	0.010533766551	1892
0	9523	0.01053909437	1893
0	9528	0.010540367168	1894
0	9530	0.010541518266	1895
0	9541	0.010550256234	1896
0	9548	0.010559047087	1897
0	9556	0.010568785428	1898
0	9564	0.010578486683	1899
0	9569	0.010580300688	1900
0	9571	0.010587903814	1901
0	9577	0.010593587019	1902
0	9584	0.010600727799	1903
0	9592	0.010609965241	1904
0	9598	0.010613073604	1905
0	9601	0.010618685974	1906
0	9605	0.01062393987	1907
0	9613	0.010632432637	1908
0	9618	0.010640426377	1909
0	9628	0.010646495714	1910
0	9630	0.010650263758	1911
0	9635	0.010656146371	1912
0	9645	0.010664756974	1913
0	9650	0.010671580769	1914
0	9653	0.010674048435	1915
0	9659	0.010679391248	1916
0	9664	0.010685006285	1917
0	9670	0.01068940566	1918
0	9673	0.010690600662	1919
0	9676	0.010696693142	1920
0	9681	0.010703435719	1921
0	9688	0.010711240634	1922
0	9698	0.010720677302	1923
0	9704	0.010729422691	1924
0	9709	0.010734708421	1925
0	9711	0.010736535149	1926
0	9713	0.010739220556	1927
0	9722	0.010746356322	1928
0	9728	0.010750846958	1929
0	9736	0.010755965716	1930
0	9742	0.010764574182	1931
0	9746	0.010770939928	1932
0	9751	0.010775090266	1933
0	9753	0.010779337425	1934
0	9760	0.010789258051	1935
0	9767	0.0107965502	1936
0	9770	0.010800939384	1937
0	9773	0.010801951709	1938
0	9780	0.010808145628	1939
0	9782	0.010810179748	1940
0	9787	0.010818806764	1941
0	9790	0.010821062867	1942
0	9796	0.010823213061	1943
0	9803	0.010833073489	1944
0	9806	0.010835603415	1945
0	9814	0.010843942481	1946
0	9818	0.010852958011	1947
0	9823	0.010857480692	1948
0	9829	0.010866758019	1949
0	9836	0.010870982185	1950
0	9842	0.010877302904	1951
0	9846	0.010884472737	1952
0	9849	0.010885979297	1953
0	9855	0.010892544189	1954
0	9859	0.010895579374	1955
0	9863	0.010904715338	1956
0	9871	0.010914056398	1957
0	9877	0.010921446689	1958
0	9880	0.010929230632	1959
0	9886	0.010932046101	1960
0	9888	0.010935899302	1961
0	9894	0.010939576475	1962
0	9897	0.010944649958	1963
0	9904	0.010954523078	1964
0	9907	0.01095747111	1965
0	9915	0.010963625472	1966
0	9920	0.010969349485	1967
0	9923	0.010974716389	1968
0	9928	0.010978042265	1969
0	9931	0.010982343666	1970
0	9939	0.0109893621	1971
0	9944	0.010997619949	1972
0	9953	0.011005947991	1973
0	9960	0.011014041522	1974
0	9963	0.011020332711	1975
0	9970	0.011029339857	1976
0	9973	0.011030613303	1977
0	9979	0.011033415987	1978
0	9982	0.01103705084	1979
0	9986	0.011042815704	1980
0	9989	0.01104614787	1981
0	9993	0.011051955245	1982
0	9997	0.011057526565	1983
0	10003	0.011066704345	1984
0	10007	0.011073548468	1985
0	10012	0.011077921544	1986
0	10015	0.011081122818	1987
0	10021	0.011088333269	1988
0	10024	0.011090271365	1989
0	10026	0.011091561711	1990
0	10032	0.011096914981	1991
0	10038	0.011101773155	1992
0	10040	0.011103407502	1993
0	10049	0.011108508566	1994
0	10055	0.011117539558	1995
0	10060	0.011126783937	1996
0	10068	0.011129994696	1997
0	10070	0.011131730805	1998
0	10075	0.011139454763	1999
0	10080	0.011147080182	2000
0	10087	0.011153000382	2001
0	10091	0.011157055985	2002
0	10099	0.011166430581	2003
0	10105	0.011175839265	2004
0	10111	0.011179757452	2005
0	10113	0.011184231894	2006
0	10118	0.011186330807	2007
0	10125	0.011193402242	2008
0	10134	0.011201215226	2009
0	10137	0.011205804044	2010
0	10142	0.011206819995	2011
0	10148	0.01121313089	2012
0	10156	0.011219238328	2013
0	10160	0.011225828942	2014
0	10163	0.011228788087	2015
0	10166	0.011231001522	2016
0	10168	0.011232765615	2017
0	10175	0.011239398056	2018
0	10181	0.011246574877	2019
0	10188	0.011254891938	2020
0	10194	0.011262069182	2021
0	10200	0.011267901356	2022
0	10202	0.011275174786	2023
0	10206	0.011280439794	2024
0	10213	0.011290012701	2025
0	10217	0.011291214074	2026
0	10222	0.011297410393	2027
0	10233	0.011306784322	2028
0	10239	0.011309733074	2029
0	10241	0.011314127925	2030
0	10247	0.011323004869	2031
0	10254	0.011328287754	2032
0	10259	0.011332898516	2033
0	10264	0.01133574219	2034
0	10266	0.011338789346	2035
0	10271	0.011348055057	2036
0	10281	0.01135726368	2037
0	10286	0.011359566091	2038
0	10288	0.011363304934	2039
0	10295	0.011371735299	2040
0	10298	0.011375898092	2041
0	10304	0.01138551311	2042
0	10311	0.011394504397	2043
0	10315	0.011404064793	2044
0	10321	0.011408636487	2045
0	10325	0.011416509718	2046
0	10331	0.011422823998	2047
0	10336	0.011425386476	2048
0	10341	0.011434483444	2049
0	10344	0.011440401187	2050
0	10352	0.011449379631	2051
0	10355	0.011451891848	2052
0	10361	0.011454915549	2053
0	10367	0.011461154587	2054
0	10374	0.011466980593	2055
0	10378	0.011472198301	2056
0	10384	0.011473745883	2057
0	10392	0.011480523111	2058
0	10400	0.011484915482	2059
0	10403	0.011487556827	2060
0	10409	0.011494667821	2061
0	10413	0.011499915146	2062
0	10421	0.011507799716	2063
0	10425	0.011514373421	2064
0	10427	0.011518236776	2065
0	10431	0.01152222229	2066
0	10437	0.011527162688	2067
0	10440	0.011533718129	2068
0	10448	0.011541558813	2069
0	10452	0.011551170967	2070
0	10458	0.011558156467	2071
0	10464	0.01156303233	2072
0	10469	0.011566477462	2073
0	10474	0.011570205086	2074
0	10481	0.011578184918	2075
0	10484	0.011581191774	2076
0	10487	0.011586029927	2077
0	10491	0.011587688127	2078
0	10496	0.011596509533	2079
0	10500	0.011605859468	2080
0	10504	0.011614035848	2081
0	10509	0.01161775773	2082
0	10513	0.011620205943	2083
0	10520	0.011625459112	2084
0	10522	0.011632124488	2085
0	10526	0.011638829469	2086
0	10532	0.011645722105	2087
0	10537	0.011649386427	2088
0	10540	0.011655230453	2089
0	10546	0.011659449032	2090
0	10552	0.011666131894	2091
0	10555	0.011669128764	2092
0	10561	0.011676976333	2093
0	10568	0.01168568361	2094
0	10574	0.011688617976	2095
0	10577	0.01169058999	2096
0	10582	0.011697062757	2097
0	10588	0.01169823314	2098
0	10590	0.011704065628	2099
0	10597	0.011709247388	2100
0	10603	0.01171805183	2101
0	10609	0.011723078559	2102
0	10613	0.011729206703	2103
0	10618	0.011736711262	2104
0	10622	0.011739028002	2105
0	10630	0.011744364453	2106
0	10635	0.011752226902	2107
0	10642	0.011756707815	2108
0	10651	0.011762485522	2109
0	10653	0.011766607583	2110
0	10656	0.011768951397	2111
0	10661	0.011771744538	2112
0	10664	0.011778396112	2113
0	10668	0.011783188375	2114
0	10674	0.011787314311	2115
0	10677	0.011789125132	2116
0	10683	0.011795709697	2117
0	10688	0.011805550525	2118
0	10693	0.0118104348	2119
0	10695	0.011813349065	2120
0	10702	0.01182061058	2121
0	10707	0.01182519531	2122
0	10712	0.011828187983	2123
0	10717	0.01183505397	2124
0	10719	0.011838625451	2125
0	10722	0.01183973893	2126
0	10727	0.011847997461	2127
0	10735	0.011857153378	2128
0	10738	0.011863432594	2129
0	10745	0.011870626546	2130
0	10749	0.011878029027	2131
0	10755	0.011882027036	2132
0	10763	0.011890288682	2133
0	10768	0.01189573591	2134
0	10773	0.011900495583	2135
0	10776	0.011904493646	2136
0	10782	0.01190560094	2137
0	10786	0.011910873841	2138
0	10789	0.011917154991	2139
0	10793	0.011920865684	2140
0	10798	0.011930101236	2141
0	10806	0.011939691118	2142
0	10811	0.011946545424	2143
0	10817	0.011956431341	2144
0	10820	0.011958415748	2145
0	10824	0.011962680822	2146
0	10829	0.011971154645	2147
0	10831	0.011973819762	2148
0	10834	0.011975746854	2149
0	10841	0.011983811721	2150
0	10848	0.011993094957	2151
0	10851	0.011994268983	2152
0	10854	0.011996841496	2153
0	10862	0.012006784897	2154
0	10865	0.012008690569	2155
0	10868	0.012010689979	2156
0	10873	0.012014135461	2157
0	10876	0.01201668866	2158
0	10882	0.012020249284	2159
0	10886	0.012024341879	2160
0	10892	0.012030374964	2161
0	10898	0.012035266165	2162
0	10900	0.012039051331	2163
0	10906	0.012045216101	2164
0	10912	0.012048874491	2165
0	10915	0.012051569717	2166
0	10918	0.012055154913	2167
0	10925	0.012062036997	2168
0	10929	0.012065854498	2169
0	10935	0.012075062328	2170
0	10937	0.012076931427	2171
0	10943	0.012084099712	2172
0	10947	0.01208953727	2173
0	10950	0.012091127861	2174
0	10955	0.012097853801	2175
0	10960	0.012102243555	2176
0	10964	0.012106322414	2177
0	10969	0.012113791807	2178
0	10972	0.012116916111	2179
0	10976	0.0121257343	2180
0	10984	0.012131337325	2181
0	10989	0.012137639229	2182
0	10997	0.012141571892	2183
0	11002	0.012148923829	2184
0	11009	0.012156739723	2185
0	11016	0.012166108111	2186
0	11022	0.012169277294	2187
0	11026	0.012175317026	2188
0	11034	0.012182258233	2189
0	11038	0.012187722612	2190
0	11044	0.012194354574	2191
0	11049	0.012196729045	2192
0	11054	0.012203709539	2193
0	11057	0.012204756559	2194
0	11062	0.012209537272	2195
0	11069	0.01221796934	2196
0	11075	0.012222370237	2197
0	11077	0.012224132564	2198
0	11084	0.012234055759	2199
0	11093	0.012242469253	2200
0	11100	0.012250742653	2201
0	11103	0.012254847847	2202
0	11110	0.012260332817	2203
0	11114	0.012264783609	2204
0	11118	0.01227246195	2205
0	11124	0.012279731326	2206
0	11129	0.01228186325	2207
0	11131	0.012283603094	2208
0	11134	0.012284852303	2209
0	11139	0.012292136117	2210
0	11145	0.01230037591	2211
0	11147	0.012301396222	2212
0	11149	0.012303263978	2213
0	11154	0.012306545897	2214
0	11158	0.012309556929	2215
0	11164	0.01231417884	2216
0	11167	0.012317318421	2217
0	11174	0.01232351636	2218
0	11179	0.012328258398	2219
0	11184	0.012337013078	2220
0	11188	0.01234308132	2221
0	11194	0.012348657934	2222
0	11199	0.0123539556	2223
0	11206	0.01236353996	2224
0	11208	0.012369128133	2225
0	11213	0.012371190042	2226
0	11219	0.012377499764	2227
0	11224	0.012385204682	2228
0	11227	0.012386394195	2229
0	11231	0.012387619143	2230
0	11238	0.012393664247	2231
0	11240	0.012396105057	2232
0	11245	0.012398775753	2233
0	11247	0.012405932714	2234
0	11255	0.012414720199	2235
0	11261	0.01241898293	2236
0	11268	0.012426264685	2237
0	11273	0.012431363186	2238
0	11276	0.012435940395	2239
0	11280	0.012440227992	2240
0	11283	0.01244475627	2241
0	11287	0.012449442969	2242
0	11291	0.012458509718	2243
0	11300	0.012468082995	2244
0	11302	0.01247378655	2245
0	11306	0.012480977002	2246
0	11311	0.012487627544	2247
0	11319	0.012496156454	2248
0	11321	0.01250364736	2249
0	11326	0.012510558655	2250
0	11335	0.012518497868	2251
0	11342	0.012525245286	2252
0	11348	0.012529391247	2253
0	11351	0.012531030239	2254
0	11356	0.0125369052	2255
0	11361	0.012545006693	2256
0	11366	0.012548639164	2257
0	11368	0.012550108647	2258
0	11370	0.012552601394	2259
0	11373	0.012553724699	2260
0	11382	0.012563449589	2261
0	11389	0.012572778121	2262
0	11391	0.012576290133	2263
0	11398	0.012584231736	2264
0	11400	0.012588649978	2265
0	11408	0.012590859463	2266
0	11416	0.012598674918	2267
0	11425	0.012608635806	2268
0	11427	0.012612155892	2269
0	11433	0.012615701095	2270
0	11436	0.012616768341	2271
0	11441	0.012625697651	2272
0	11443	0.012629407115	2273
0	11451	0.012638631389	2274
0	11456	0.012644902897	2275
0	11461	0.012652275982	2276
0	11470	0.012658413028	2277
0	11476	0.012665172734	2278
0	11481	0.012671462359	2279
0	11487	0.012673941632	2280
0	11493	0.012683092146	2281
0	11498	0.012690751202	2282
0	11504	0.012697860984	2283
0	11508	0.012705821022	2284
0	11513	0.012715159359	2285
0	11519	0.012720945518	2286
0	11522	0.012723408453	2287
0	11525	0.012728568854	2288
0	11532	0.012737936817	2289
0	11541	0.012746748081	2290
0	11549	0.012756298795	2291
0	11557	0.012760054261	2292
0	11559	0.012762749353	2293
0	11563	0.012769629267	2294
0	11568	0.012772989674	2295
0	11573	0.012779526464	2296
0	11578	0.012782138377	2297
0	11585	0.012786926567	2298
0	11588	0.012790040027	2299
0	11591	0.012792042492	2300
0	11597	0.012800131007	2301
0	11599	0.012801283026	2302
0	11602	0.012806405067	2303
0	11609	0.012813942781	2304
0	11611	0.01281748066	2305
0	11622	0.012827362843	2306
0	11624	0.012831605845	2307
0	11632	0.01283977873	2308
0	11638	0.012843541459	2309
0	11644	0.012851600297	2310
0	11647	0.012855432883	2311
0	11652	0.012860458096	2312
0	11660	0.012866334598	2313
0	11667	0.012873337581	2314
0	11674	0.012881830946	2315
0	11679	0.012889391219	2316
0	11682	0.012890849508	2317
0	11690	0.012899248345	2318
0	11693	0.012901837025	2319
0	11701	0.012910820729	2320
0	11707	0.012920658021	2321
0	11709	0.012921709489	2322
0	11714	0.012926382331	2323
0	11718	0.012929508855	2324
0	11721	0.012932480715	2325
0	11727	0.012942103145	2326
0	11732	0.012947705192	2327
0	11738	0.012956607273	2328
0	11743	0.01296021093	2329
0	11750	0.012966392276	2330
0	11752	0.012969172206	2331
0	11757	0.012976736664	2332
0	11764	0.012984745103	2333
0	11770	0.012989605261	2334
0	11776	0.012994114647	2335
0	11778	0.013000255067	2336
0	11791	0.013007831264	2337
0	11799	0.013016655584	2338
0	11802	0.013019576966	2339
0	11810	0.013024059003	2340
0	11814	0.01303043062	2341
0	11820	0.013036127628	2342
0	11824	0.013041836344	2343
0	11828	0.01304949424	2344
0	11833	0.013052509698	2345
0	11836	0.013056034538	2346
0	11838	0.013058094388	2347
0	11842	0.013060271898	2348
0	11845	0.013062332732	2349
0	11848	0.013066064648	2350
0	11856	0.013072583252	2351
0	11859	0.013078459829	2352
0	11867	0.013084598873	2353
0	11872	0.013087602071	2354
0	11879	0.01309478873	2355
0	11881	0.013099791524	2356
0	11884	0.013101291071	2357
0	11893	0.01311067388	2358
0	11903	0.01312030282	2359
0	11905	0.013125912867	2360
0	11908	0.013128841897	2361
0	11913	0.013131154458	2362
0	11918	0.013136010746	2363
0	11921	0.013138803369	2364
0	11923	0.013144386043	2365
0	11927	0.013147879179	2366
0	11931	0.013150946084	2367
0	11937	0.013155637113	2368
0	11943	0.013164331247	2369
0	11947	0.013170648737	2370
0	11951	0.013175290685	2371
0	11954	0.01317819746	2372
0	11960	0.013179928832	2373
0	11966	0.01318584292	2374
0	11972	0.013193796769	2375
0	11975	0.013196347573	2376
0	11978	0.013198967373	2377
0	11986	0.01320573908	2378
0	11989	0.013207451768	2379
0	11991	0.013208628188	2380
0	11995	0.013215169158	2381
0	11997	0.01322033314	2382
0	12002	0.013229518188	2383
0	12009	0.013235697429	2384
0	12014	0.013245211793	2385
0	12022	0.013254795672	2386
0	12029	0.013264120361	2387
0	12031	0.013268017894	2388
0	12036	0.013276219405	2389
0	12041	0.013281339581	2390
0	12044	0.013286693671	2391
0	12052	0.013295032225	2392
0	12056	0.013301279529	2393
0	12062	0.0133044988	2394
0	12069	0.013312847785	2395
0	12072	0.013315468206	2396
0	12075	0.013318319543	2397
0	12083	0.013326721569	2398
0	12087	0.013333391215	2399
0	12092	0.013340652722	2400
0	12094	0.013342443255	2401
0	12096	0.013343595965	2402
0	12104	0.013349548926	2403
0	12110	0.013355514757	2404
0	12116	0.013364663672	2405
0	12121	0.013371328456	2406
0	12127	0.013375184622	2407
0	12132	0.013384230696	2408
0	12135	0.013385556374	2409
0	12143	0.013395443477	2410
0	12148	0.013402841766	2411
0	12157	0.013407445303	2412
0	12162	0.013411984903	2413
0	12169	0.013417175114	2414
0	12171	0.01342156604	2415
0	12176	0.013423068217	2416
0	12182	0.013424426645	2417
0	12186	0.013431134053	2418
0	12188	0.013439273515	2419
0	12193	0.013446230981	2420
0	12199	0.013453285068	2421
0	12204	0.013458117242	2422
0	12209	0.013467134552	2423
0	12212	0.013468199989	2424
0	12217	0.013474933757	2425
0	12224	0.01348371643	2426
0	12229	0.013490527162	2427
0	12231	0.013492094463	2428
0	12233	0.013494224284	2429
0	12237	0.013500464515	2430
0	12241	0.013504815787	2431
0	12243	0.013509299543	2432
0	12249	0.013512752797	2433
0	12257	0.013521194064	2434
0	12260	0.013526108525	2435
0	12269	0.013535657278	2436
0	12275	0.013541581352	2437
0	12278	0.013547093972	2438
0	12282	0.013549402528	2439
0	12287	0.013559064803	2440
0	12292	0.013564358768	2441
0	12297	0.013572842053	2442
0	12302	0.013578438383	2443
0	12308	0.013584768433	2444
0	12316	0.013594513005	2445
0	12322	0.013595881616	2446
0	12325	0.013597642846	2447
0	12331	0.013607612362	2448
0	12336	0.013611548807	2449
0	12341	0.013614365191	2450
0	12346	0.013622666175	2451
0	12352	0.013631612081	2452
0	12358	0.013639726128	2453
0	12363	0.013649087439	2454
0	12368	0.0136541049	2455
0	12377	0.013660620986	2456
0	12382	0.013668869134	2457
0	12390	0.013676206422	2458
0	12396	0.013685207972	2459
0	12399	0.01368659519	2460
0	12405	0.013689736507	2461
0	12409	0.013699437285	2462
0	12411	0.013701391607	2463
0	12416	0.013704940069	2464
0	12421	0.013712844249	2465
0	12427	0.013720043119	2466
0	12434	0.013729094654	2467
0	12441	0.01373682474	2468
0	12447	0.013741785661	2469
0	12453	0.013749954233	2470
0	12461	0.013758768691	2471
0	12463	0.013759980114	2472
0	12468	0.013766311737	2473
0	12473	0.013769810729	2474
0	12476	0.013771344155	2475
0	12482	0.013774236288	2476
0	12485	0.013775947049	2477
0	12490	0.01377751252	2478
0	12494	0.013786250909	2479
0	12503	0.013790940329	2480
0	12506	0.01379516885	2481
0	12513	0.013804340767	2482
0	12515	0.013806823881	2483
0	12519	0.013808470841	2484
0	12521	0.013812133359	2485
0	12525	0.013813698016	2486
0	12528	0.013817574877	2487
0	12532	0.013824273817	2488
0	12539	0.013833091452	2489
0	12542	0.013834540557	2490
0	12547	0.01384165913	2491
0	12553	0.013845272663	2492
0	12556	0.013848662609	2493
0	12564	0.013858115705	2494
0	12570	0.013867676758	2495
0	12572	0.013869965987	2496
0	12574	0.013871144092	2497
0	12579	0.013877877052	2498
0	12584	0.013885925058	2499
0	12593	0.01389553133	2500
0	12601	0.013905373489	2501
0	12604	0.013907635166	2502
0	12611	0.013916838	2503
0	12617	0.013922986633	2504
0	12624	0.013932923679	2505
0	12629	0.013940983256	2506
0	12634	0.013945991976	2507
0	12637	0.013947990105	2508
0	12643	0.013955587183	2509
0	12647	0.013960282105	2510
0	12653	0.013967394371	2511
0	12655	0.013968666012	2512
0	12660	0.013972073019	2513
0	12667	0.013980477608	2514
0	12669	0.0139822721	2515
0	12674	0.013988565268	2516
0	12683	0.013997863029	2517
0	12688	0.014004835138	2518
0	12698	0.014013575461	2519
0	12701	0.014015727286	2520
0	12707	0.014019424451	2521
0	12710	0.014021785742	2522
0	12715	0.014031529028	2523
0	12725	0.014039516386	2524
0	12727	0.014040781547	2525
0	12730	0.014046584934	2526
0	12740	0.014054255662	2527
0	12749	0.01406234398	2528
0	12753	0.014068536113	2529
0	12756	0.01407037098	2530
0	12764	0.014079876051	2531
0	12769	0.014085369112	2532
0	12772	0.01409144736	2533
0	12777	0.014093553637	2534
0	12782	0.014102482114	2535
0	12788	0.014111074942	2536
0	12793	0.01411753956	2537
0	12799	0.014123049938	2538
0	12808	0.014132311619	2539
0	12811	0.014134555891	2540
0	12821	0.014141314353	2541
0	12823	0.014143518882	2542
0	12831	0.014150597949	2543
0	12836	0.014155891342	2544
0	12843	0.014165200496	2545
0	12847	0.014167317338	2546
0	12852	0.014172117251	2547
0	12858	0.014181748986	2548
0	12869	0.01418967708	2549
0	12871	0.0141940111	2550
0	12879	0.014202712083	2551
0	12882	0.014206019272	2552
0	12887	0.014210180643	2553
0	12894	0.014215235697	2554
0	12906	0.014223272956	2555
0	12911	0.014232223362	2556
0	12917	0.01423880056	2557
0	12922	0.014243700096	2558
0	12928	0.014250807815	2559
0	12931	0.014257265695	2560
0	12939	0.014264448614	2561
0	12947	0.014271383743	2562
0	12950	0.014276403097	2563
0	12963	0.014284357482	2564
0	12968	0.014292367182	2565
0	12974	0.014301219761	2566
0	12980	0.014309061196	2567
0	12985	0.014315934919	2568
0	12988	0.014317052392	2569
0	12993	0.014324524922	2570
0	12996	0.014329580092	2571
0	13007	0.014336776191	2572
0	13010	0.014338349861	2573
0	13015	0.014342920525	2574
0	13018	0.014346769781	2575
0	13023	0.014352789955	2576
0	13028	0.01435549946	2577
0	13032	0.014359675575	2578
0	13036	0.014366605306	2579
0	13039	0.014369870848	2580
0	13045	0.014378760091	2581
0	13049	0.014385484031	2582
0	13058	0.014393056095	2583
0	13065	0.01440291059	2584
0	13069	0.014411227581	2585
0	13073	0.014414920113	2586
0	13078	0.014421310384	2587
0	13080	0.01442302459	2588
0	13084	0.014431512809	2589
0	13088	0.014437613876	2590
0	13096	0.014447137161	2591
0	13107	0.014455765092	2592
0	13112	0.014461176396	2593
0	13119	0.0144674764	2594
0	13121	0.014470045715	2595
0	13126	0.014474121667	2596
0	13132	0.014478501644	2597
0	13135	0.014484635224	2598
0	13141	0.014489295738	2599
0	13146	0.014493945686	2600
0	13152	0.014495228369	2601
0	13154	0.014500942025	2602
0	13160	0.014507398132	2603
0	13165	0.014511727758	2604
0	13168	0.014512734298	2605
0	13174	0.014522170972	2606
0	13176	0.014523507212	2607
0	13183	0.014526442383	2608
0	13186	0.014531457531	2609
0	13190	0.014537141729	2610
0	13194	0.014544227417	2611
0	13196	0.014546060029	2612
0	13202	0.014551768517	2613
0	13206	0.014555986342	2614
0	13209	0.014562594172	2615
0	13214	0.014565913707	2616
0	13218	0.014572271606	2617
0	13224	0.014579823843	2618
0	13229	0.014589272042	2619
0	13233	0.014596508304	2620
0	13236	0.014599048713	2621
0	13241	0.014607763898	2622
0	13246	0.014613562438	2623
0	13250	0.014618770647	2624
0	13256	0.014622610965	2625
0	13268	0.014632153842	2626
0	13276	0.014638625913	2627
0	13279	0.014643030419	2628
0	13285	0.014647593492	2629
0	13290	0.014653035983	2630
0	13295	0.01465845236	2631
0	13299	0.014664834052	2632
0	13305	0.014669337372	2633
0	13309	0.01467379472	2634
0	13311	0.014678708547	2635
0	13316	0.01468025448	2636
0	13322	0.014690224141	2637
0	13327	0.01469486983	2638
0	13333	0.014703431336	2639
0	13335	0.014705924539	2640
0	13345	0.014713821924	2641
0	13348	0.014716558872	2642
0	13353	0.014720939948	2643
0	13360	0.01472770238	2644
0	13363	0.014729041026	2645
0	13366	0.014731955393	2646
0	13371	0.01473316975	2647
0	13374	0.01473682716	2648
0	13378	0.014745362127	2649
0	13383	0.014752683143	2650
0	13390	0.014756977383	2651
0	13393	0.014758770365	2652
0	13396	0.014764631801	2653
0	13401	0.014768436303	2654
0	13406	0.014777450234	2655
0	13412	0.014780036106	2656
0	13417	0.014783793787	2657
0	13422	0.014791812645	2658
0	13428	0.014795705021	2659
0	13432	0.014801433278	2660
0	13437	0.0148067654	2661
0	13439	0.014811485445	2662
0	13447	0.014820551036	2663
0	13452	0.014821896658	2664
0	13459	0.014831031654	2665
0	13463	0.014836019212	2666
0	13469	0.014843956001	2667
0	13475	0.014847913223	2668
0	13478	0.014850665408	2669
0	13485	0.014860442118	2670
0	13494	0.014869373256	2671
0	13498	0.014875523668	2672
0	13502	0.014882306765	2673
0	13507	0.014886251931	2674
0	13510	0.01488843997	2675
0	13515	0.014894738681	2676
0	13517	0.014899866856	2677
0	13523	0.014907441542	2678
0	13529	0.014912936635	2679
0	13532	0.014916290845	2680
0	13538	0.014925302218	2681
0	13547	0.014932042442	2682
0	13553	0.014933587662	2683
0	13560	0.01494183376	2684
0	13565	0.014948657263	2685
0	13571	0.014952343258	2686
0	13577	0.014961077626	2687
0	13579	0.014965046925	2688
0	13588	0.014972471685	2689
0	13594	0.014979844036	2690
0	13599	0.01498725896	2691
0	13604	0.014992919541	2692
0	13609	0.014998327004	2693
0	13613	0.015001248933	2694
0	13621	0.015007320202	2695
0	13626	0.015015511161	2696
0	13635	0.015021464705	2697
0	13638	0.015024013653	2698
0	13642	0.015028881886	2699
0	13651	0.015036546727	2700
0	13656	0.015041987666	2701
0	13662	0.015047654807	2702
0	13667	0.015053997948	2703
0	13670	0.015057343006	2704
0	13674	0.015060197229	2705
0	13677	0.01506474526	2706
0	13682	0.015066004025	2707
0	13688	0.015075189664	2708
0	13692	0.015081535911	2709
0	13699	0.01509126675	2710
0	13704	0.015098786279	2711
0	13706	0.015100057097	2712
0	13714	0.015107244572	2713
0	13719	0.015112102794	2714
0	13726	0.015118666223	2715
0	13730	0.01512841404	2716
0	13736	0.015134970996	2717
0	13742	0.015141218112	2718
0	13747	0.015147609236	2719
0	13752	0.015152784493	2720
0	13756	0.01515986195	2721
0	13762	0.015166660127	2722
0	13765	0.015169133662	2723
0	13772	0.015171464052	2724
0	13775	0.015172490517	2725
0	13780	0.015177220541	2726
0	13787	0.015184353443	2727
0	13796	0.015192943194	2728
0	13800	0.01519621871	2729
0	13806	0.015199087784	2730
0	13813	0.015207086804	2731
0	13815	0.015209230601	2732
0	13817	0.015212315848	2733
0	13822	0.015214000763	2734
0	13826	0.015218920822	2735
0	13834	0.015228343346	2736
0	13844	0.015237868796	2737
0	13850	0.015246653735	2738
0	13855	0.01525290031	2739
0	13857	0.015256563462	2740
0	13865	0.015265161992	2741
0	13870	0.015270926165	2742
0	13875	0.015278032199	2743
0	13881	0.015285383694	2744
0	13888	0.015295168068	2745
0	13893	0.015297960784	2746
0	13901	0.015303950488	2747
0	13905	0.015311063983	2748
0	13907	0.015315613617	2749
0	13915	0.015322674369	2750
0	13920	0.015331508549	2751
0	13924	0.015338842555	2752
0	13929	0.015341141146	2753
0	13934	0.015350354054	2754
0	13942	0.01535782428	2755
0	13946	0.01536257509	2756
0	13951	0.015371176035	2757
0	13958	0.015379882637	2758
0	13961	0.015381540982	2759
0	13967	0.015386604339	2760
0	13973	0.01539039568	2761
0	13978	0.015396999767	2762
0	13980	0.015402273096	2763
0	13986	0.015407305087	2764
0	13988	0.015409379022	2765
0	13992	0.015415325254	2766
0	13997	0.015424911325	2767
0	14000	0.015426044196	2768
0	14006	0.01543263309	2769
0	14008	0.015434599338	2770
0	14014	0.01543905506	2771
0	14016	0.015440997616	2772
0	14022	0.015446815045	2773
0	14028	0.01545023922	2774
0	14033	0.015455926789	2775
0	14038	0.015461368249	2776
0	14040	0.015463052271	2777
0	14047	0.015469131061	2778
0	14050	0.015477247659	2779
0	14060	0.015483981467	2780
0	14063	0.015489442235	2781
0	14070	0.015494231622	2782
0	14075	0.015497843801	2783
0	14078	0.015501014827	2784
0	14083	0.015507348721	2785
0	14088	0.015511401878	2786
0	14091	0.015513498642	2787
0	14097	0.015517212845	2788
0	14101	0.01552569165	2789
0	14103	0.015526783466	2790
0	14107	0.015531425819	2791
0	14112	0.015536692501	2792
0	14117	0.015541611223	2793
0	14123	0.015550989931	2794
0	14129	0.01555304089	2795
0	14131	0.015557700258	2796
0	14140	0.015564962416	2797
0	14144	0.015569463909	2798
0	14146	0.015572759794	2799
0	14152	0.015581703746	2800
0	14159	0.015585898006	2801
0	14163	0.015593289283	2802
0	14165	0.01559859728	2803
0	14172	0.015606304223	2804
0	14177	0.015610402468	2805
0	14182	0.015617375587	2806
0	14187	0.015619342275	2807
0	14190	0.015626066362	2808
0	14195	0.015628788866	2809
0	14200	0.015635326589	2810
0	14206	0.015637895918	2811
0	14209	0.015640888082	2812
0	14215	0.015649417283	2813
0	14224	0.015654804143	2814
0	14228	0.015659716308	2815
0	14232	0.015668229909	2816
0	14235	0.015670058404	2817
0	14239	0.015676711941	2818
0	14242	0.015678761709	2819
0	14247	0.015683454703	2820
0	14258	0.015688293415	2821
0	14260	0.015689415558	2822
0	14262	0.015690842369	2823
0	14267	0.015699569448	2824
0	14272	0.015705624997	2825
0	14277	0.015710985629	2826
0	14279	0.0157151144	2827
0	14287	0.015722794225	2828
0	14292	0.015728501939	2829
0	14294	0.015733363054	2830
0	14300	0.015736241667	2831
0	14305	0.015743547831	2832
0	14316	0.015753199043	2833
0	14318	0.015758594506	2834
0	14326	0.015766969459	2835
0	14329	0.015769293435	2836
0	14338	0.015777929688	2837
0	14342	0.015786850533	2838
0	14350	0.015796235057	2839
0	14355	0.01579951115	2840
0	14359	0.015801909258	2841
0	14365	0.015810022029	2842
0	14370	0.015816151188	2843
0	14373	0.015820766677	2844
0	14379	0.015829009745	2845
0	14384	0.015835774281	2846
0	14389	0.015842667774	2847
0	14394	0.015852190365	2848
0	14402	0.015861358451	2849
0	14405	0.0158668657	2850
0	14409	0.015872907103	2851
0	14413	0.015877361833	2852
0	14422	0.015884906643	2853
0	14424	0.01588632217	2854
0	14428	0.015888810472	2855
0	14431	0.015891402529	2856
0	14442	0.015901155912	2857
0	14447	0.015910006389	2858
0	14457	0.015915744468	2859
0	14462	0.015923208592	2860
0	14469	0.015929596572	2861
0	14471	0.01593194239	2862
0	14476	0.015940752346	2863
0	14484	0.015947269064	2864
0	14491	0.015957192639	2865
0	14497	0.015963696941	2866
0	14499	0.015964836404	2867
0	14508	0.015974518574	2868
0	14511	0.015982300653	2869
0	14516	0.015987011934	2870
0	14520	0.015988775142	2871
0	14522	0.015989904049	2872
0	14526	0.015995274324	2873
0	14532	0.016001182064	2874
0	14537	0.016006333853	2875
0	14545	0.01601498519	2876
0	14551	0.016024328251	2877
0	14557	0.01602935635	2878
0	14562	0.016036617965	2879
0	14570	0.016042998475	2880
0	14572	0.016046379162	2881
0	14574	0.016049370012	2882
0	14580	0.016056178777	2883
0	14585	0.016062704841	2884
0	14591	0.016071409751	2885
0	14593	0.016072570871	2886
0	14596	0.016074058762	2887
0	14604	0.016082339252	2888
0	14607	0.016084009612	2889
0	14615	0.016091624174	2890
0	14625	0.016100049022	2891
0	14630	0.016104813459	2892
0	14636	0.016109316999	2893
0	14641	0.016116364048	2894
0	14643	0.016118649073	2895
0	14649	0.016121604601	2896
0	14651	0.016123236916	2897
0	14654	0.016125571356	2898
0	14662	0.016129444973	2899
0	14667	0.016133811877	2900
0	14673	0.016139663767	2901
0	14678	0.016148532104	2902
0	14684	0.016155147544	2903
0	14691	0.0161601337	2904
0	14697	0.016166696439	2905
0	14701	0.016175559925	2906
0	14709	0.016183681197	2907
0	14711	0.016185373976	2908
0	14719	0.016192148274	2909
0	14722	0.016194986804	2910
0	14728	0.016200947852	2911
0	14735	0.016209665371	2912
0	14737	0.016214159138	2913
0	14743	0.016218911913	2914
0	14749	0.016226382282	2915
0	14758	0.016235004551	2916
0	14762	0.016239212724	2917
0	14765	0.016243499792	2918
0	14768	0.016245273582	2919
0	14776	0.016254068617	2920
0	14783	0.016263907646	2921
0	14786	0.016265463595	2922
0	14796	0.016272576842	2923
0	14798	0.016276352973	2924
0	14802	0.016279575014	2925
0	14806	0.016286957894	2926
0	14808	0.016293131323	2927
0	14814	0.016301890923	2928
0	14819	0.016311395512	2929
0	14824	0.016312896385	2930
0	14829	0.016317316094	2931
0	14834	0.016320418094	2932
0	14839	0.016327107363	2933
0	14847	0.016332035857	2934
0	14850	0.016333768842	2935
0	14854	0.016334941878	2936
0	14856	0.016338187435	2937
0	14863	0.016345872429	2938
0	14868	0.016353969387	2939
0	14875	0.016361159124	2940
0	14880	0.016367911161	2941
0	14888	0.016377723016	2942
0	14891	0.016382686523	2943
0	14896	0.016387484791	2944
0	14900	0.016393478112	2945
0	14909	0.016400259725	2946
0	14912	0.016405435677	2947
0	14914	0.016408356511	2948
0	14922	0.016413471722	2949
0	14927	0.016419305307	2950
0	14935	0.016428866829	2951
0	14939	0.016435242198	2952
0	14941	0.016441982103	2953
0	14949	0.016447225476	2954
0	14958	0.016454061822	2955
0	14962	0.01646400838	2956
0	14967	0.016471350834	2957
0	14974	0.016480048895	2958
0	14979	0.016484148122	2959
0	14981	0.01648569623	2960
0	14983	0.016488989961	2961
0	14987	0.016494297884	2962
0	14993	0.016503768313	2963
0	14998	0.01650948347	2964
0	15000	0.016514008955	2965
0	15005	0.016518293194	2966
[...]
3	88961	0.097588330295	26723
3	88964	0.09758903	26724
3	88966	0.097591997985	26725
3	88971	0.097594920015	26726
3	88973	0.097596076584	26727
3	88976	0.097597138212	26728
3	88979	0.097597582692	26729
3	88982	0.097603866553	26730
3	88984	0.097604292126	26731
3	88987	0.097611663954	26732
3	88991	0.097613478189	26733
3	88993	0.097614953791	26734
3	88998	0.097624623397	26735
3	89003	0.097629287565	26736
3	89006	0.097634498053	26737
3	89008	0.097637755502	26738
3	89013	0.097639391219	26739
3	89017	0.097647607913	26740
3	89019	0.097650054442	26741
3	89025	0.097656488479	26742
3	89027	0.097657359255	26743
3	89031	0.097657511521	26744
3	89035	0.097663462918	26745
3	89039	0.097668922281	26746
3	89042	0.097673537459	26747
3	89045	0.097675323468	26748
3	89047	0.097678836861	26749
3	89049	0.097683472	26750
3	89055	0.097687770986	26751
3	89057	0.097690167916	26752
3	89061	0.097692950517	26753
3	89063	0.097699462964	26754
3	89067	0.097706206976	26755
3	89071	0.097708224281	26756
3	89073	0.097711401333	26757
3	89080	0.097716781041	26758
3	89083	0.097717788812	26759
3	89086	0.097718093401	26760
3	89088	0.097724435572	26761
3	89091	0.097724764579	26762
3	89093	0.097728374686	26763
3	89097	0.097732147522	26764
3	89100	0.097735580155	26765
3	89102	0.097735872034	26766
3	89107	0.097742540364	26767
3	89110	0.097743629892	26768
3	89112	0.097746928329	26769
3	89114	0.097749649319	26770
3	89118	0.097753263776	26771
3	89121	0.097755094286	26772
3	89124	0.097757538474	26773
3	89127	0.097760400493	26774
3	89130	0.097762175516	26775
3	89132	0.097764513856	26776
3	89137	0.097770996154	26777
3	89141	0.097775189939	26778
3	89143	0.09777907598	26779
3	89146	0.097783998779	26780
3	89149	0.097784362032	26781
3	89151	0.097787624071	26782
3	89153	0.097789496185	26783
3	89158	0.097794286751	26784
3	89160	0.097799474873	26785
3	89163	0.097801282623	26786
3	89167	0.097802681243	26787
3	89170	0.097804849902	26788
3	89172	0.097805660474	26789
3	89175	0.09781109757	26790
3	89177	0.09781225157	26791
3	89179	0.09781938087	26792
3	89183	0.097819497616	26793
3	89186	0.09782892395	26794
3	89188	0.097829179582	26795
3	89190	0.097834329975	26796
3	89193	0.097836594031	26797
3	89197	0.097837000276	26798
3	89200	0.097838837867	26799
3	89204	0.097845952262	26800
3	89207	0.097851490157	26801
3	89212	0.097854586166	26802
3	89214	0.097854795847	26803
3	89217	0.097856458824	26804
3	89220	0.097856712874	26805
3	89222	0.097857789653	26806
3	89224	0.097859224852	26807
3	89226	0.097864086075	26808
3	89230	0.097866400152	26809
3	89232	0.097869785233	26810
3	89235	0.097870399785	26811
3	89237	0.097877518228	26812
3	89240	0.097878213768	26813
3	89242	0.097881853863	26814
3	89246	0.097883134046	26815
3	89248	0.097883249662	26816
3	89252	0.097892821072	26817
3	89256	0.097895026274	26818
3	89259	0.097897396121	26819
3	89264	0.097902284776	26820
3	89267	0.097907674117	26821
3	89269	0.097907818228	26822
3	89271	0.097913761042	26823
3	89276	0.097921201636	26824
3	89280	0.097924268338	26825
3	89282	0.097927214245	26826
3	89287	0.097934518868	26827
3	89291	0.097943413955	26828
3	89293	0.097947044664	26829
3	89296	0.09794736269	26830
3	89298	0.097950404502	26831
3	89300	0.097953441236	26832
3	89303	0.097954652882	26833
3	89306	0.097957680714	26834
3	89308	0.097960412556	26835
3	89310	0.097962175925	26836
3	89316	0.097968354589	26837
3	89318	0.09797485519	26838
3	89323	0.097978062072	26839
3	89325	0.097980280546	26840
3	89329	0.097986686812	26841
3	89331	0.097989942658	26842
3	89334	0.09799297882	26843
3	89336	0.097998150081	26844
3	89340	0.098000537067	26845
3	89344	0.098002110006	26846
3	89348	0.098007234592	26847
3	89352	0.098013777998	26848
3	89354	0.098014709528	26849
3	89356	0.098015890359	26850
3	89359	0.098021861288	26851
3	89361	0.098023115098	26852
3	89365	0.098029606379	26853
3	89367	0.098031518961	26854
3	89373	0.098039102903	26855
3	89375	0.098040571318	26856
3	89379	0.098043052128	26857
3	89381	0.098046843354	26858
3	89386	0.098053805871	26859
3	89388	0.098057185313	26860
3	89391	0.098060055573	26861
3	89393	0.098060083491	26862
3	89398	0.098068372869	26863
3	89402	0.098069964799	26864
3	89404	0.098071020754	26865
3	89408	0.098072681008	26866
3	89412	0.098076175698	26867
3	89416	0.098077440354	26868
3	89419	0.098081730071	26869
3	89421	0.098085557853	26870
3	89425	0.098089461736	26871
3	89427	0.098090569791	26872
3	89432	0.098095945828	26873
3	89436	0.098099494499	26874
3	89441	0.098106153355	26875
3	89445	0.098109059432	26876
3	89450	0.098116983001	26877
3	89454	0.098119334291	26878
3	89456	0.098120085633	26879
3	89460	0.098121795258	26880
3	89466	0.09813164944	26881
3	89471	0.098135338126	26882
3	89475	0.09813911353	26883
3	89478	0.098139537454	26884
3	89480	0.098140366558	26885
3	89486	0.098146069515	26886
3	89488	0.098147937169	26887
3	89491	0.098149601465	26888
3	89493	0.098152211034	26889
3	89498	0.0981563121	26890
3	89500	0.098157552518	26891
3	89504	0.098164727369	26892
3	89506	0.098168296018	26893
3	89510	0.098168344848	26894
3	89512	0.098177571062	26895
3	89516	0.098178168159	26896
3	89518	0.098181090073	26897
3	89521	0.098182225335	26898
3	89524	0.098184303855	26899
3	89526	0.098186180816	26900
3	89528	0.098189352466	26901
3	89532	0.098192267419	26902
3	89534	0.098196044027	26903
3	89538	0.09820052695	26904
3	89540	0.098202158397	26905
3	89544	0.098205462769	26906
3	89548	0.098211278466	26907
3	89550	0.098214957312	26908
3	89553	0.098215335031	26909
3	89557	0.09822293059	26910
3	89559	0.098225329623	26911
3	89562	0.098228067417	26912
3	89566	0.098235026527	26913
3	89568	0.098239895858	26914
3	89573	0.098243329815	26915
3	89575	0.098246542418	26916
3	89578	0.098250869793	26917
3	89580	0.098253130104	26918
3	89584	0.09825620375	26919
3	89586	0.098260927064	26920
3	89589	0.098261890637	26921
3	89592	0.098265167057	26922
3	89594	0.098265973413	26923
3	89597	0.098266863535	26924
3	89599	0.098269979634	26925
3	89603	0.098275344861	26926
3	89608	0.098278185717	26927
3	89613	0.09828257028	26928
3	89616	0.098285881758	26929
3	89620	0.098289439383	26930
3	89623	0.09829151287	26931
3	89625	0.098292789812	26932
3	89627	0.098294607889	26933
3	89630	0.09829704715	26934
3	89634	0.09829941307	26935
3	89639	0.098306001362	26936
3	89641	0.098306661706	26937
3	89645	0.098313995306	26938
3	89648	0.098316255359	26939
3	89652	0.098321268706	26940
3	89655	0.098325632282	26941
3	89660	0.098328526162	26942
3	89663	0.098333791835	26943
3	89667	0.098334353142	26944
3	89669	0.098341771123	26945
3	89675	0.098349772943	26946
3	89680	0.098358056976	26947
3	89683	0.098359203017	26948
3	89686	0.098359817029	26949
3	89688	0.09836210289	26950
3	89693	0.098369541799	26951
3	89695	0.098375628558	26952
3	89698	0.098378006756	26953
3	89700	0.098380123119	26954
3	89706	0.098387106063	26955
3	89708	0.098388398825	26956
3	89712	0.098395787257	26957
3	89715	0.098400230883	26958
3	89717	0.098400376358	26959
3	89722	0.098404134328	26960
3	89726	0.09841027193	26961
3	89730	0.098413771352	26962
3	89732	0.098414818682	26963
3	89736	0.09842251018	26964
3	89738	0.098426338704	26965
3	89741	0.098427969911	26966
3	89746	0.098435022229	26967
3	89749	0.098437536369	26968
3	89751	0.098438781735	26969
3	89754	0.09844018882	26970
3	89757	0.098445148386	26971
3	89761	0.098448651155	26972
3	89763	0.098455263163	26973
3	89767	0.098459963664	26974
3	89770	0.0984611375	26975
3	89772	0.098461975577	26976
3	89775	0.098463593738	26977
3	89780	0.098467601918	26978
3	89782	0.098467774391	26979
3	89785	0.098471695687	26980
3	89788	0.098474025442	26981
3	89790	0.098474335806	26982
3	89795	0.098479738237	26983
3	89798	0.098482829676	26984
3	89801	0.098487106374	26985
3	89803	0.09848806532	26986
3	89806	0.098489506434	26987
3	89809	0.098496527058	26988
3	89817	0.098501095666	26989
3	89820	0.098508712253	26990
3	89822	0.098510349487	26991
3	89826	0.098512949189	26992
3	89828	0.098517533508	26993
3	89832	0.098526776702	26994
3	89836	0.098527228053	26995
3	89840	0.098535624829	26996
3	89845	0.098539871626	26997
3	89847	0.098541680135	26998
3	89849	0.098545114226	26999
3	89852	0.098545449949	27000
3	89854	0.098546122132	27001
3	89856	0.098551951878	27002
3	89861	0.098556582596	27003
3	89863	0.09855988617	27004
3	89867	0.098565399371	27005
3	89870	0.098570246522	27006
3	89874	0.098571431469	27007
3	89878	0.098574712357	27008
3	89880	0.098581110932	27009
3	89885	0.098584152661	27010
3	89888	0.098586285829	27011
3	89890	0.098587274751	27012
3	89896	0.098591376288	27013
3	89898	0.098593272664	27014
3	89902	0.098600671024	27015
3	89906	0.098606206814	27016
3	89908	0.098607196209	27017
3	89910	0.098613740308	27018
3	89913	0.098613980203	27019
3	89916	0.098617522789	27020
3	89918	0.098618108473	27021
3	89922	0.098626939867	27022
3	89924	0.09863062545	27023
3	89932	0.098640014004	27024
3	89936	0.098640047781	27025
3	89938	0.098646735465	27026
3	89943	0.098654908875	27027
3	89947	0.098658069741	27028
3	89949	0.098659622957	27029
3	89953	0.098662587474	27030
3	89955	0.098668636184	27031
3	89958	0.098672210373	27032
3	89960	0.098678424714	27033
3	89964	0.09868036664	27034
3	89966	0.098683990535	27035
3	89968	0.098685238937	27036
3	89971	0.098685913467	27037
3	89974	0.098687423383	27038
3	89980	0.098694391482	27039
3	89982	0.098695796377	27040
3	89987	0.098703271309	27041
3	89989	0.098708245632	27042
3	89993	0.098709800918	27043
3	89996	0.098712760108	27044
3	90000	0.098715728904	27045
3	90003	0.098721162282	27046
3	90008	0.098725805867	27047
3	90010	0.098727941892	27048
3	90013	0.098734997773	27049
3	90018	0.098739430953	27050
3	90020	0.098741996946	27051
3	90024	0.098746400701	27052
3	90026	0.098750516062	27053
3	90031	0.098752496232	27054
3	90036	0.098758059546	27055
3	90038	0.098759721394	27056
3	90042	0.098766503007	27057
3	90047	0.098769351815	27058
3	90051	0.098774748785	27059
3	90054	0.098779626938	27060
3	90057	0.098781209548	27061
3	90061	0.09878519046	27062
3	90065	0.098789068282	27063
3	90068	0.098794467076	27064
3	90070	0.098795619145	27065
3	90075	0.098802000341	27066
3	90080	0.098811748098	27067
3	90084	0.098815596953	27068
3	90087	0.098818368401	27069
3	90089	0.098819589013	27070
3	90095	0.098824618369	27071
3	90097	0.098826406981	27072
3	90099	0.098827562765	27073
3	90101	0.098830310505	27074
3	90106	0.098832816775	27075
3	90110	0.098835505226	27076
3	90112	0.098835621331	27077
3	90115	0.098839937619	27078
3	90117	0.098842556768	27079
3	90123	0.098850206417	27080
3	90126	0.098854299587	27081
3	90128	0.098854837559	27082
3	90131	0.098858269078	27083
3	90135	0.098862859349	27084
3	90141	0.098866661014	27085
3	90143	0.098868457841	27086
3	90146	0.098870981884	27087
3	90150	0.098875238041	27088
3	90154	0.098879919324	27089
3	90156	0.098881164789	27090
3	90160	0.098883044842	27091
3	90162	0.098885614592	27092
3	90165	0.098887329529	27093
3	90170	0.098891223723	27094
3	90177	0.098897689204	27095
3	90183	0.098905481398	27096
3	90186	0.09890689552	27097
3	90189	0.098910143297	27098
3	90193	0.098916246853	27099
3	90195	0.098921391151	27100
3	90200	0.098927529569	27101
3	90202	0.098928605729	27102
3	90205	0.098930338102	27103
3	90207	0.098932007228	27104
3	90212	0.098939138363	27105
3	90215	0.098940901505	27106
3	90218	0.098941929705	27107
3	90220	0.098945038784	27108
3	90223	0.098946492617	27109
3	90226	0.098948784736	27110
3	90230	0.098949899232	27111
3	90232	0.098951454204	27112
3	90237	0.098960600538	27113
3	90241	0.098966390455	27114
3	90245	0.098972417569	27115
3	90248	0.098972984923	27116
3	90250	0.098975553925	27117
3	90255	0.098980611049	27118
3	90259	0.098982617807	27119
3	90262	0.098985839259	27120
3	90264	0.098986142373	27121
3	90268	0.098990985579	27122
3	90272	0.098999057038	27123
3	90278	0.099008732363	27124
3	90280	0.099011193358	27125
3	90284	0.099013953563	27126
3	90288	0.099019139547	27127
3	90290	0.099020075866	27128
3	90293	0.099021665558	27129
3	90295	0.099024943481	27130
3	90299	0.099025959854	27131
3	90301	0.099032166948	27132
3	90305	0.099035945654	27133
3	90307	0.099037950275	27134
3	90311	0.099039381232	27135
3	90313	0.099040075704	27136
3	90317	0.099041905966	27137
3	90319	0.099048250772	27138
3	90322	0.099050283487	27139
3	90324	0.099055476774	27140
3	90328	0.099056619614	27141
3	90331	0.099060631455	27142
3	90333	0.09906312028	27143
3	90335	0.099064838549	27144
3	90338	0.09906898132	27145
3	90340	0.099069402876	27146
3	90344	0.09907260378	27147
3	90347	0.099075989656	27148
3	90349	0.099076653024	27149
3	90352	0.099079834856	27150
3	90356	0.09908190414	27151
3	90360	0.099086707829	27152
3	90365	0.099094745896	27153
3	90369	0.099099935529	27154
3	90372	0.099104345939	27155
3	90374	0.099107055508	27156
3	90378	0.099107635542	27157
3	90380	0.099109875392	27158
3	90386	0.099112328665	27159
3	90388	0.099116554575	27160
3	90392	0.099126450126	27161
3	90395	0.099130608312	27162
3	90398	0.099130784215	27163
3	90400	0.099136092169	27164
3	90409	0.099144969079	27165
3	90414	0.099149005081	27166
3	90418	0.099153691459	27167
3	90420	0.099155047116	27168
3	90425	0.099157500194	27169
3	90428	0.099159247674	27170
3	90432	0.099161500061	27171
3	90434	0.099163805755	27172
3	90438	0.099165261645	27173
3	90440	0.099169678162	27174
3	90442	0.09917199872	27175
3	90447	0.099173821861	27176
3	90449	0.099175947185	27177
3	90453	0.099182333136	27178
3	90455	0.099183430771	27179
3	90458	0.099185163098	27180
3	90462	0.099192292368	27181
3	90468	0.099198040421	27182
3	90470	0.09920076107	27183
3	90474	0.099202765481	27184
3	90476	0.099205534262	27185
3	90479	0.099207186617	27186
3	90482	0.099209445026	27187
3	90488	0.099215458278	27188
3	90492	0.099220043419	27189
3	90494	0.099224604456	27190
3	90499	0.099228601777	27191
3	90502	0.099232543694	27192
3	90504	0.099234209417	27193
3	90508	0.099239846138	27194
3	90512	0.099243980952	27195
3	90515	0.09924914533	27196
3	90518	0.099250946707	27197
3	90520	0.099253680249	27198
3	90523	0.099259136815	27199
3	90531	0.099267144929	27200
3	90534	0.099274935773	27201
3	90538	0.099275076627	27202
3	90542	0.099279147959	27203
3	90545	0.099286527724	27204
3	90550	0.099293037785	27205
3	90552	0.099295346406	27206
3	90556	0.099296042249	27207
3	90558	0.099297577868	27208
3	90563	0.099300570127	27209
3	90565	0.099304894745	27210
3	90568	0.099306379155	27211
3	90572	0.099310360037	27212
3	90577	0.099316874925	27213
3	90579	0.099323898595	27214
3	90582	0.099325252271	27215
3	90584	0.099332993392	27216
3	90588	0.099334126276	27217
3	90591	0.099338412515	27218
3	90595	0.099341371451	27219
3	90599	0.099343186575	27220
3	90601	0.099347768871	27221
3	90605	0.099350058099	27222
3	90607	0.099351967087	27223
3	90611	0.099354864831	27224
3	90614	0.099358373696	27225
3	90616	0.099360397033	27226
3	90619	0.099362846121	27227
3	90622	0.099368086706	27228
3	90624	0.099369013962	27229
3	90629	0.099374319498	27230
3	90632	0.099374607157	27231
3	90635	0.099376556801	27232
3	90637	0.099377282335	27233
3	90640	0.099378449314	27234
3	90644	0.099382345222	27235
3	90647	0.099385317572	27236
3	90649	0.099387217126	27237
3	90651	0.09938854339	27238
3	90654	0.099394084435	27239
3	90656	0.099394432056	27240
3	90659	0.099395453797	27241
3	90663	0.099402460951	27242
3	90666	0.099407863906	27243
3	90668	0.099410892694	27244
3	90671	0.099413010189	27245
3	90673	0.099419366136	27246
3	90677	0.099429322941	27247
3	90681	0.099430458181	27248
3	90684	0.099431625361	27249
3	90688	0.099436446744	27250
3	90691	0.099439771185	27251
3	90694	0.099440641582	27252
3	90696	0.099445456381	27253
3	90699	0.099446398367	27254
3	90701	0.099452212661	27255
3	90705	0.099452239925	27256
3	90708	0.099453547621	27257
3	90710	0.099454349821	27258
3	90712	0.099455557958	27259
3	90717	0.099458399457	27260
3	90720	0.099463565922	27261
3	90722	0.09946489563	27262
3	90724	0.09946830937	27263
3	90727	0.099468768727	27264
3	90731	0.099471489319	27265
3	90736	0.099477935831	27266
3	90740	0.09948660256	27267
3	90743	0.099491877463	27268
3	90747	0.099492389714	27269
3	90750	0.099494647091	27270
3	90752	0.099496687925	27271
3	90756	0.099498354427	27272
3	90758	0.099503596433	27273
3	90762	0.099512538369	27274
3	90766	0.099518636424	27275
3	90768	0.099520409777	27276
3	90772	0.099523727073	27277
3	90774	0.099526098952	27278
3	90778	0.099530323535	27279
3	90782	0.099532906644	27280
3	90787	0.099536679987	27281
3	90789	0.099538730083	27282
3	90793	0.099543688693	27283
3	90796	0.099545167608	27284
3	90800	0.099548113076	27285
3	90802	0.099549370215	27286
3	90806	0.099552995035	27287
3	90811	0.099562104733	27288
3	90815	0.099571988706	27289
3	90819	0.099576888941	27290
3	90824	0.099579293724	27291
3	90827	0.099583299236	27292
3	90829	0.099584459185	27293
3	90833	0.099589461204	27294
3	90837	0.099591748639	27295
3	90839	0.099596805932	27296
3	90843	0.099600237721	27297
3	90845	0.099600403846	27298
3	90849	0.099601996946	27299
3	90852	0.099605408682	27300
3	90854	0.099607131829	27301
3	90857	0.099609561871	27302
3	90862	0.099618429819	27303
3	90867	0.099622968024	27304
3	90870	0.099624333663	27305
3	90873	0.099629016755	27306
3	90877	0.099630227762	27307
3	90879	0.099633377192	27308
3	90882	0.099637293727	27309
3	90884	0.099638688988	27310
3	90888	0.099639352531	27311
3	90890	0.09964134994	27312
3	90896	0.099644136861	27313
3	90898	0.099646147936	27314
3	90902	0.099652891311	27315
3	90904	0.099655017379	27316
3	90908	0.099661734027	27317
3	90912	0.099661869561	27318
3	90915	0.099663726881	27319
3	90917	0.099663929419	27320
3	90920	0.099667701679	27321
3	90923	0.09967348365	27322
3	90925	0.099674401863	27323
3	90927	0.099675617208	27324
3	90931	0.099683061447	27325
3	90933	0.099687765996	27326
3	90936	0.099689047722	27327
3	90939	0.09969438863	27328
3	90942	0.099696010926	27329
3	90944	0.099697647275	27330
3	90947	0.099699396589	27331
3	90949	0.099702663162	27332
3	90954	0.099705204678	27333
3	90956	0.099711975146	27334
3	90961	0.099717817217	27335
3	90965	0.099722736118	27336
3	90967	0.099724776408	27337
3	90969	0.099730052889	27338
3	90973	0.099735948901	27339
3	90978	0.099742386213	27340
3	90980	0.099744505883	27341
3	90984	0.099749643927	27342
3	90987	0.099750170199	27343
3	90989	0.099754851113	27344
3	90994	0.099761097635	27345
3	90996	0.099762790161	27346
3	91000	0.099770308283	27347
3	91003	0.099771033634	27348
3	91005	0.099775302272	27349
3	91008	0.099778514162	27350
3	91013	0.099784935532	27351
3	91018	0.099793587709	27352
3	91021	0.099799380267	27353
3	91023	0.099802276276	27354
3	91027	0.099806267209	27355
3	91029	0.099808143759	27356
3	91033	0.099816009008	27357
3	91035	0.09981801191	27358
3	91039	0.099819901878	27359
3	91042	0.099820673633	27360
3	91044	0.09982798979	27361
3	91046	0.099829563231	27362
3	91049	0.099830396173	27363
3	91052	0.099833248708	27364
3	91054	0.099837849494	27365
3	91057	0.099838247461	27366
3	91061	0.099846930519	27367
3	91065	0.099847035017	27368
3	91069	0.099850314157	27369
3	91072	0.09985269584	27370
3	91074	0.099855789385	27371
3	91078	0.099855830733	27372
3	91080	0.099860043458	27373
3	91085	0.099864500556	27374
3	91088	0.099866832922	27375
3	91090	0.09986700075	27376
3	91094	0.099871098213	27377
3	91096	0.099876310333	27378
3	91100	0.099880831664	27379
3	91102	0.099880839765	27380
3	91104	0.099887828434	27381
3	91110	0.099895230439	27382
3	91112	0.099896887414	27383
3	91115	0.099900875092	27384
3	91119	0.099901547345	27385
3	91121	0.099904394862	27386
3	91126	0.099908259388	27387
3	91128	0.099911236632	27388
3	91131	0.099913211753	27389
3	91134	0.099917869565	27390
3	91136	0.09992089867	27391
3	91138	0.099923111536	27392
3	91144	0.099928346217	27393
3	91146	0.099931162835	27394
3	91148	0.099932412727	27395
3	91150	0.099937917279	27396
3	91154	0.09993818244	27397
3	91156	0.099945549395	27398
3	91161	0.099948396625	27399
3	91164	0.099951937787	27400
3	91167	0.09995367456	27401
3	91169	0.09995425909	27402
3	91171	0.099955632855	27403
3	91175	0.099960534239	27404
3	91177	0.099962734192	27405
3	91180	0.099967661052	27406
3	91182	0.099971103785	27407
3	91186	0.099976304607	27408
3	91188	0.099980901703	27409
3	91192	0.0999851401	27410
3	91194	0.099989015148	27411
3	91198	0.099995960057	27412
3	91202	0.099998139614	27413

