file 3791413 1590088528                                         
version 2
run Aufgabe-1-4-0-20200521-21:14:54-13936
attr configname Aufgabe-1-4
attr datetime 20200521-21:14:54
attr experiment Aufgabe-1-4
attr inifile omnetpp.ini
attr iterationvars ""
attr iterationvarsf ""
attr measurement ""
attr network SrcSink
attr processid 13936
attr repetition 0
attr replication #0
attr resultdir results
attr runnumber 0
attr seedset 0
param SrcSink.num_nodes 2

vector 0 SrcSink.node[0] Send-counter-vector ETV
vector 1 SrcSink.node[1] Send-counter-vector ETV
vector 2 SrcSink.node[1] Receive-counter-vector ETV
vector 3 SrcSink.node[0] Receive-counter-vector ETV
3	616 964300 4 91639 0 0.071800489499 32768 1 32768 536887296 11728660905984
2	964916 964326 3 91870 0 0.071998780893 32768 1 32768 536887296 11728660905984
0	1929242 533926 1 127754 0 0.099998139614 18157 1 18157 164847403 1995477813315
1	2463168 539342 2 127751 0 0.099995960057 18336 1 18336 168113616 2055076879856
2	3002510 392694 91873 127755 0.07200096433 0.099998139614 12805 32769 45573 501584655 19822540066615
3	3395204 396207 91641 127756 0.071802201619 0.099998139614 12922 32769 45690 506923599 20066166892681

