version 2
run Aufgabe-1-4-0-20200521-21:14:54-13936
attr configname Aufgabe-1-4
attr datetime 20200521-21:14:54
attr experiment Aufgabe-1-4
attr inifile omnetpp.ini
attr iterationvars ""
attr iterationvarsf ""
attr measurement ""
attr network SrcSink
attr processid 13936
attr repetition 0
attr replication #0
attr resultdir results
attr runnumber 0
attr seedset 0
param SrcSink.num_nodes 2

vector 0 SrcSink.node[0] Send-counter-vector ETV
vector 1 SrcSink.node[1] Send-counter-vector ETV
vector 2 SrcSink.node[1] Receive-counter-vector ETV
vector 3 SrcSink.node[0] Receive-counter-vector ETV
3	4	0	1
3	5	0	2
3	7	0	3
3	10	0.000007436704	4
3	13	0.000008721511	5
3	17	0.000012249597	6
3	19	0.000013180946	7
3	21	0.000013180946	8
3	23	0.000016634853	9
3	25	0.000016634853	10
3	28	0.000021275554	11
3	31	0.000024760378	12
3	33	0.000024760378	13
3	36	0.000026595349	14
3	40	0.000030631914	15
3	44	0.00003181388	16
3	46	0.000034090748	17
3	48	0.000034090748	18
3	51	0.000041428276	19
3	53	0.000042920857	20
3	55	0.000042920857	21
3	58	0.000046690748	22
3	61	0.000048074171	23
3	63	0.000048074171	24
3	66	0.000053800664	25
3	69	0.00005483346	26
3	73	0.000059637023	27
3	75	0.000060530095	28
3	79	0.000064899427	29
3	82	0.00006784838	30
3	84	0.000068498198	31
3	86	0.000068498198	32
3	89	0.000069017488	33
3	91	0.000070845272	34
3	95	0.000075569894	35
3	99	0.000079805465	36
3	102	0.000079968658	37
3	105	0.000081510687	38
3	108	0.000088388947	39
3	112	0.000088926602	40
3	114	0.00009128239	41
3	116	0.00009128239	42
3	118	0.000095555787	43
3	120	0.000095555787	44
3	123	0.000096682777	45
3	125	0.000096901616	46
3	127	0.000096901616	47
3	129	0.000103776729	48
3	132	0.000106228515	49
3	134	0.000106228515	50
3	137	0.000106578141	51
3	140	0.000111774938	52
3	142	0.000112465168	53
3	145	0.000114458544	54
3	148	0.00011831336	55
3	152	0.000118386529	56
3	155	0.000121082601	57
3	158	0.000122956512	58
3	162	0.000125349271	59
3	164	0.000130019449	60
3	168	0.000135137406	61
3	171	0.000135606068	62
3	174	0.000136785957	63
3	176	0.000136785957	64
3	178	0.00014033122	65
3	182	0.000141581016	66
3	186	0.000143649565	67
3	189	0.00014456622	68
3	192	0.000146143548	69
3	195	0.000152230248	70
3	199	0.000152573848	71
3	201	0.000155618753	72
3	204	0.000161802271	73
3	206	0.000161802271	74
3	209	0.000161824355	75
3	212	0.000165301738	76
3	214	0.000165301738	77
3	217	0.000168831048	78
3	219	0.000172126305	79
3	221	0.000172126305	80
3	224	0.000172435703	81
3	227	0.000173616671	82
3	229	0.000176706692	83
3	231	0.000176706692	84
3	234	0.000177944944	85
3	236	0.000183807041	86
3	238	0.000183807041	87
3	241	0.00018527858	88
3	244	0.00019308354	89
3	247	0.000193466738	90
3	249	0.000193466738	91
3	252	0.000199411917	92
3	254	0.000200217028	93
3	257	0.000205259808	94
3	259	0.000205259808	95
3	262	0.000208986658	96
3	265	0.000212555121	97
3	269	0.000216889871	98
3	272	0.000217123673	99
3	274	0.000217123673	100
3	277	0.000220138037	101
3	279	0.000226059291	102
3	281	0.000226059291	103
3	284	0.000226434223	104
3	288	0.00022950902	105
3	291	0.00023157121	106
3	293	0.00023157121	107
3	296	0.000234323715	108
3	299	0.000236845018	109
3	303	0.000238037888	110
3	305	0.000240436937	111
3	309	0.000244600027	112
3	312	0.000248284568	113
3	314	0.000249343007	114
3	318	0.000252470988	115
3	320	0.000255511934	116
3	323	0.0002603947	117
3	325	0.0002603947	118
3	328	0.000262191644	119
3	330	0.000262666075	120
3	333	0.000266009143	121
3	337	0.000267114428	122
3	341	0.00026901055	123
3	343	0.00027334414	124
3	345	0.00027334414	125
3	348	0.000276438722	126
3	351	0.000281914401	127
3	353	0.000281914401	128
3	356	0.000285251857	129
3	360	0.000287366237	130
3	363	0.00028748924	131
3	365	0.00028748924	132
3	367	0.000293611147	133
3	370	0.000294910148	134
3	374	0.000296150637	135
3	378	0.000300931315	136
3	380	0.000302187007	137
3	383	0.000303336659	138
3	385	0.000303336659	139
3	387	0.000304442086	140
3	391	0.000309728756	141
3	395	0.000312273423	142
3	397	0.000313939198	143
3	400	0.000316739167	144
3	404	0.000317679363	145
3	407	0.000319278046	146
3	409	0.000319278046	147
3	412	0.000320694685	148
3	415	0.000328034415	149
3	418	0.000328775124	150
3	420	0.000328775124	151
3	422	0.00033536843	152
3	426	0.000336087213	153
3	428	0.000342660313	154
3	432	0.000345495139	155
3	435	0.000349772129	156
3	439	0.000351804329	157
3	442	0.000356388319	158
3	445	0.000359390308	159
3	448	0.000359452537	160
3	450	0.000359452537	161
3	452	0.000364521518	162
3	454	0.000364521518	163
3	456	0.00036756825	164
3	460	0.000368889659	165
3	463	0.00036933591	166
3	467	0.000373799409	167
3	470	0.000378199176	168
3	473	0.000378264951	169
3	476	0.000379870198	170
3	480	0.000384081665	171
3	482	0.000385177565	172
3	484	0.000385177565	173
3	487	0.000389910878	174
3	490	0.000392609837	175
3	492	0.000392609837	176
3	495	0.000392862951	177
3	498	0.00039404881	178
3	500	0.0004017676	179
3	504	0.000402983079	180
3	506	0.000406218775	181
3	510	0.000406905226	182
3	513	0.000410711968	183
3	516	0.000412879612	184
3	518	0.000412879612	185
3	521	0.000418894389	186
3	523	0.000419998527	187
3	527	0.000426081783	188
3	530	0.000428097182	189
3	532	0.000428097182	190
3	534	0.000431920414	191
3	536	0.000431920414	192
3	539	0.000433659485	193
3	541	0.00043758422	194
3	545	0.000441063739	195
3	548	0.000442406389	196
3	550	0.000442406389	197
3	552	0.000445905047	198
3	556	0.000447880119	199
3	559	0.000449937906	200
3	563	0.00045342995	201
3	565	0.000454173269	202
3	568	0.000459341621	203
3	572	0.000460881687	204
3	574	0.00046199114	205
3	578	0.000463366317	206
3	582	0.000464640394	207
3	584	0.000466191655	208
3	587	0.000469148709	209
3	591	0.000472378367	210
3	595	0.000473788899	211
3	597	0.000475118441	212
3	601	0.000477418227	213
3	604	0.000478566094	214
3	607	0.000479649255	215
3	609	0.000482213811	216
3	613	0.000487715631	217
3	616	0.000489291228	218
3	619	0.000489545264	219
3	621	0.000489545264	220
3	624	0.000495515252	221
3	626	0.000498433811	222
3	628	0.000498433811	223
3	631	0.000498480878	224
3	633	0.000501519126	225
3	635	0.000501519126	226
3	638	0.000503911292	227
3	640	0.000509711949	228
3	642	0.000509711949	229
3	645	0.000511288225	230
3	647	0.000513349132	231
3	651	0.000514037305	232
3	654	0.000514468264	233
3	658	0.000522798093	234
3	660	0.000524304728	235
3	664	0.000530580219	236
3	666	0.000531059981	237
3	668	0.000531059981	238
3	671	0.000535274648	239
3	673	0.000539459041	240
3	677	0.000539884839	241
3	680	0.000542477894	242
3	682	0.000542477894	243
3	685	0.000544539923	244
3	688	0.000552234169	245
3	690	0.000552234169	246
3	693	0.000552639778	247
3	697	0.000557235268	248
3	699	0.000560200595	249
3	701	0.000560200595	250
3	704	0.000561900439	251
3	708	0.000563381284	252
3	711	0.00056450682	253
3	713	0.000569536511	254
3	717	0.000572442047	255
3	720	0.000574248474	256
3	722	0.000578482251	257
3	724	0.000578482251	258
3	727	0.000582542291	259
3	730	0.000583267106	260
3	732	0.000583267106	261
3	734	0.000590810504	262
3	736	0.000590810504	263
3	739	0.000591008711	264
3	742	0.00059250708	265
3	744	0.00059411576	266
3	748	0.000597898491	267
3	751	0.000599221025	268
3	753	0.000599221025	269
3	755	0.000602772695	270
3	757	0.000602772695	271
3	760	0.000602876629	272
3	764	0.000610973539	273
3	767	0.000611214528	274
3	771	0.000617913898	275
3	773	0.000619222787	276
3	776	0.000623587105	277
3	779	0.000624674299	278
3	783	0.00062504613	279
3	786	0.000629011974	280
3	788	0.000629011974	281
3	790	0.000630413485	282
3	794	0.000633058858	283
3	796	0.000635830853	284
3	798	0.000635830853	285
3	801	0.000638728374	286
3	803	0.000641226544	287
3	805	0.000641226544	288
3	807	0.000646504149	289
3	811	0.000648363274	290
3	815	0.000650802078	291
3	818	0.000651377771	292
3	821	0.000657230783	293
3	823	0.000657230783	294
3	826	0.000657934611	295
3	830	0.000660373442	296
3	833	0.000661764864	297
3	836	0.000663595206	298
3	838	0.000663595206	299
3	841	0.000669509298	300
3	843	0.000672533579	301
3	845	0.000672533579	302
3	847	0.000677124807	303
3	849	0.000677124807	304
3	852	0.000677712704	305
3	855	0.00068196156	306
3	859	0.000685009303	307
3	861	0.000689407758	308
3	865	0.000691733853	309
3	867	0.00069731043	310
3	871	0.000699901376	311
3	873	0.000700406219	312
3	875	0.000700406219	313
3	878	0.000706220233	314
3	880	0.000706426521	315
3	882	0.000706426521	316
3	884	0.000715193725	317
3	888	0.000715787103	318
3	891	0.000717552113	319
3	895	0.000724212199	320
3	897	0.000724373318	321
3	899	0.000724373318	322
3	901	0.000729189608	323
3	905	0.000733755876	324
3	908	0.000735055618	325
3	910	0.000736738875	326
3	914	0.00073713356	327
3	916	0.000740949237	328
3	918	0.000740949237	329
3	921	0.000742920203	330
3	923	0.000745560572	331
3	925	0.000745560572	332
3	928	0.000750042634	333
3	931	0.000751870882	334
3	934	0.000755068286	335
3	936	0.000755068286	336
3	939	0.00075581119	337
3	942	0.000757108861	338
3	944	0.000758202846	339
3	946	0.000758202846	340
3	948	0.000759815513	341
3	951	0.000761107701	342
3	953	0.000761107701	343
3	956	0.000762726535	344
3	959	0.000764386422	345
3	962	0.000766425781	346
3	966	0.000767112574	347
3	968	0.000769627644	348
3	971	0.000773418253	349
3	973	0.000773418253	350
3	976	0.000777025679	351
3	979	0.000780167109	352
3	982	0.000781754847	353
3	984	0.000781754847	354
3	987	0.000783785896	355
3	991	0.000786958664	356
3	993	0.000789971372	357
3	997	0.000791385227	358
3	1000	0.000796964104	359
3	1002	0.000796964104	360
3	1005	0.000800070688	361
3	1008	0.000802956294	362
3	1011	0.000807690006	363
3	1015	0.000808473723	364
3	1018	0.000817410133	365
3	1020	0.000817410133	366
3	1023	0.000817798425	367
3	1027	0.000821935099	368
3	1029	0.000825058277	369
3	1031	0.000825058277	370
3	1034	0.0008252502	371
3	1038	0.000834323831	372
3	1041	0.000834779022	373
3	1043	0.000834779022	374
3	1045	0.000837833395	375
3	1049	0.000844251932	376
3	1052	0.000847391968	377
3	1054	0.000847391968	378
3	1057	0.000848474899	379
3	1059	0.000848917175	380
3	1061	0.000848917175	381
3	1064	0.000850499249	382
3	1066	0.000852369107	383
3	1070	0.00085486745	384
3	1072	0.000860108201	385
3	1074	0.000860108201	386
3	1077	0.000863027263	387
3	1080	0.000865151826	388
3	1083	0.000868291502	389
3	1085	0.000868291502	390
3	1088	0.000872000923	391
3	1091	0.000874289753	392
3	1093	0.000874289753	393
3	1096	0.000878706902	394
3	1099	0.000879966538	395
3	1101	0.000879966538	396
3	1103	0.000882306002	397
3	1107	0.000886463786	398
3	1109	0.000892255609	399
3	1111	0.000892255609	400
3	1114	0.000893845435	401
3	1116	0.000895890755	402
3	1119	0.000898072359	403
3	1121	0.000898072359	404
3	1124	0.000898873078	405
3	1126	0.000899972647	406
3	1128	0.000899972647	407
3	1130	0.000901146352	408
3	1132	0.000901146352	409
3	1134	0.000904619764	410
3	1138	0.000907931551	411
3	1140	0.000907948085	412
3	1142	0.000907948085	413
3	1145	0.000912592151	414
3	1148	0.000917691148	415
3	1150	0.00091772985	416
3	1152	0.00091772985	417
3	1155	0.000918920624	418
3	1158	0.000922420587	419
3	1161	0.000923282647	420
3	1163	0.000923282647	421
3	1166	0.000928145321	422
3	1169	0.000929913377	423
3	1171	0.000929913377	424
3	1173	0.000932430565	425
3	1175	0.000932430565	426
3	1177	0.000935713348	427
3	1181	0.00093746275	428
3	1184	0.000941599034	429
3	1186	0.000944716448	430
3	1188	0.000944716448	431
3	1191	0.000946080478	432
3	1194	0.000951317908	433
3	1198	0.000955116238	434
3	1200	0.000955393191	435
3	1202	0.000955393191	436
3	1205	0.00096105149	437
3	1208	0.000961286293	438
3	1211	0.000968679324	439
3	1213	0.000968679324	440
3	1216	0.000969758217	441
3	1219	0.000973821301	442
3	1221	0.000973821301	443
3	1224	0.000975533052	444
3	1226	0.000978071665	445
3	1230	0.000980186533	446
3	1232	0.000982901234	447
3	1236	0.000986786613	448
3	1239	0.000988827942	449
3	1242	0.000992435925	450
3	1244	0.000992621011	451
3	1246	0.000992621011	452
3	1248	0.000997120818	453
3	1252	0.000999483539	454
3	1254	0.001003945588	455
3	1256	0.001003945588	456
3	1259	0.001009232282	457
3	1262	0.001013610521	458
3	1266	0.001016237846	459
3	1269	0.001021933629	460
3	1271	0.001021933629	461
3	1274	0.001023075231	462
3	1277	0.001028957344	463
3	1279	0.00103005119	464
3	1283	0.001034636915	465
3	1287	0.00103768675	466
3	1290	0.001038311214	467
3	1292	0.001038311214	468
3	1295	0.001043538814	469
3	1298	0.001047293861	470
3	1300	0.001047293861	471
3	1303	0.001047493544	472
3	1306	0.00105408878	473
3	1309	0.001057119082	474
3	1311	0.001057119082	475
3	1313	0.001059207356	476
3	1317	0.001063389912	477
3	1321	0.0010647767	478
3	1325	0.001066101004	479
3	1327	0.001067676432	480
3	1331	0.001069949395	481
3	1334	0.001077245716	482
3	1338	0.001079106583	483
3	1342	0.001082248975	484
3	1345	0.001084691049	485
3	1348	0.001086222458	486
3	1351	0.001087910839	487
3	1353	0.001087910839	488
3	1356	0.001088711728	489
3	1359	0.001090068268	490
3	1363	0.001095726777	491
3	1366	0.001097109785	492
3	1368	0.001097109785	493
3	1370	0.001102022631	494
3	1372	0.001102022631	495
3	1375	0.001104896374	496
3	1378	0.001109075872	497
3	1380	0.001109075872	498
3	1383	0.001110603432	499
3	1387	0.001116979158	500
3	1390	0.001119057532	501
3	1392	0.001119057532	502
3	1395	0.001121383365	503
3	1398	0.001125335257	504
3	1402	0.001128138536	505
3	1404	0.001128789528	506
3	1406	0.001128789528	507
3	1408	0.00113341849	508
3	1412	0.00113460378	509
3	1414	0.001136564209	510
3	1418	0.001139497237	511
3	1420	0.001141672888	512
3	1423	0.001143873843	513
3	1425	0.001143873843	514
3	1428	0.001144383301	515
3	1431	0.001150702543	516
3	1433	0.001150787021	517
3	1435	0.001150787021	518
3	1438	0.001155327444	519
3	1441	0.001160360729	520
3	1444	0.001160780523	521
3	1446	0.001160780523	522
3	1448	0.001164180795	523
3	1450	0.001164180795	524
3	1453	0.001167098973	525
3	1457	0.001169120346	526
3	1460	0.00117313983	527
3	1462	0.001173188938	528
3	1465	0.001176366053	529
3	1468	0.001179711711	530
3	1472	0.001181027265	531
3	1475	0.001185926774	532
3	1477	0.001187669463	533
3	1481	0.001187889811	534
3	1485	0.001196523164	535
3	1488	0.001197097676	536
3	1490	0.001197097676	537
3	1492	0.001201695891	538
3	1496	0.001202889064	539
3	1498	0.001204599696	540
3	1502	0.001210053474	541
3	1505	0.001211928796	542
3	1508	0.001213688532	543
3	1511	0.001216862545	544
3	1513	0.001216862545	545
3	1516	0.001218501441	546
3	1519	0.001220028255	547
3	1523	0.001225286965	548
3	1525	0.001226726945	549
3	1529	0.001230400494	550
3	1532	0.001236432279	551
3	1536	0.001239114618	552
3	1539	0.001241785637	553
3	1541	0.001241785637	554
3	1543	0.00124331547	555
3	1547	0.001243748753	556
3	1550	0.001247417933	557
3	1554	0.001248345759	558
3	1557	0.001252010383	559
3	1559	0.001252010383	560
3	1562	0.001252718533	561
3	1565	0.001253640763	562
3	1568	0.001261177845	563
3	1572	0.001261944454	564
3	1575	0.001265023825	565
3	1577	0.001265023825	566
3	1580	0.001266589774	567
3	1584	0.001267859327	568
3	1586	0.001268554202	569
3	1590	0.001272456267	570
3	1593	0.001275010975	571
3	1595	0.001275010975	572
3	1598	0.001279447367	573
3	1601	0.001284643255	574
3	1604	0.001285905967	575
3	1608	0.001286586438	576
3	1612	0.001292304093	577
3	1615	0.001295340936	578
3	1617	0.001295340936	579
3	1619	0.001296513042	580
3	1621	0.001296513042	581
3	1624	0.001302232758	582
3	1627	0.001304449112	583
3	1631	0.001306591702	584
3	1633	0.001308215497	585
3	1635	0.001308215497	586
3	1638	0.0013083595	587
3	1641	0.001309293706	588
3	1645	0.001311744857	589
3	1647	0.001314917544	590
3	1650	0.00131641351	591
3	1654	0.001320451343	592
3	1656	0.00132437461	593
3	1658	0.00132437461	594
3	1660	0.001327170975	595
3	1662	0.001327170975	596
3	1665	0.001329526837	597
3	1668	0.001332013466	598
3	1672	0.0013336718	599
3	1674	0.001336810067	600
3	1676	0.001336810067	601
3	1678	0.001340961932	602
3	1680	0.001340961932	603
3	1683	0.001343016706	604
3	1685	0.001345495051	605
3	1689	0.001350025046	606
3	1692	0.00135538119	607
3	1694	0.00135538119	608
3	1697	0.001356242174	609
3	1700	0.001359528401	610
3	1702	0.001360890759	611
3	1704	0.001360890759	612
3	1707	0.001362876542	613
3	1710	0.001363695403	614
3	1714	0.001366372604	615
3	1717	0.001368811212	616
3	1720	0.001372362086	617
3	1723	0.001373396829	618
3	1725	0.001373396829	619
3	1728	0.001375080101	620
3	1731	0.001376812427	621
3	1733	0.00137960793	622
3	1737	0.001386603643	623
3	1740	0.00138930544	624
3	1744	0.001394827872	625
3	1746	0.001395250945	626
3	1749	0.001398655808	627
3	1753	0.001399568346	628
3	1756	0.00139995192	629
3	1758	0.00139995192	630
3	1761	0.001400580796	631
3	1764	0.001409309793	632
3	1767	0.001409758848	633
3	1771	0.001413589957	634
3	1773	0.001413783768	635
3	1777	0.001421562108	636
3	1779	0.001423710781	637
3	1781	0.001423710781	638
3	1784	0.001430620214	639
3	1786	0.001431837697	640
3	1790	0.001433699844	641
3	1792	0.001434785812	642
3	1794	0.001434785812	643
3	1796	0.001438432502	644
3	1799	0.001441178707	645
3	1801	0.001441178707	646
3	1804	0.001441419103	647
3	1807	0.001446359431	648
3	1809	0.001449182251	649
3	1811	0.001449182251	650
3	1813	0.00145089298	651
3	1817	0.00145120157	652
3	1820	0.001452814704	653
3	1823	0.001454492936	654
3	1826	0.001459155233	655
3	1830	0.001459240374	656
3	1834	0.001462797149	657
3	1837	0.00146485488	658
3	1839	0.001465269191	659
3	1842	0.001469795363	660
3	1844	0.001469795363	661
3	1847	0.001471353759	662
3	1850	0.001476704301	663
3	1852	0.001476859899	664
3	1854	0.001476859899	665
3	1857	0.001477771516	666
3	1859	0.001481534625	667
3	1861	0.001481534625	668
3	1864	0.001485117844	669
3	1867	0.001488915944	670
3	1871	0.001490218051	671
3	1875	0.001494575409	672
3	1877	0.001497993829	673
3	1879	0.001497993829	674
3	1881	0.00149975943	675
3	1885	0.001501170398	676
3	1888	0.001501771276	677
3	1892	0.001505068554	678
3	1895	0.00150639851	679
3	1897	0.00150639851	680
3	1899	0.001511787597	681
3	1901	0.001511787597	682
3	1904	0.001512604599	683
3	1907	0.001514176583	684
3	1910	0.00151429998	685
3	1912	0.00151429998	686
3	1914	0.001517238564	687
3	1918	0.001518311794	688
3	1921	0.00152074411	689
3	1924	0.001524667946	690
3	1926	0.001524667946	691
3	1929	0.001528289359	692
3	1932	0.001532218939	693
3	1936	0.001534280789	694
3	1940	0.001536001339	695
3	1942	0.0015375334	696
3	1945	0.00153882386	697
3	1947	0.00153882386	698
3	1950	0.001539637336	699
3	1952	0.001541380422	700
3	1954	0.001541380422	701
3	1956	0.001546638709	702
3	1960	0.001546654789	703
3	1964	0.001551342325	704
3	1966	0.001555707029	705
3	1970	0.00155866889	706
3	1972	0.001564708569	707
3	1976	0.001567519613	708
3	1979	0.00156882625	709
3	1982	0.001571419302	710
3	1984	0.00157195599	711
3	1986	0.00157195599	712
3	1988	0.001576186947	713
3	1992	0.001577010454	714
3	1995	0.00157934098	715
3	1999	0.001580555986	716
3	2001	0.001581297274	717
3	2004	0.001584579905	718
3	2008	0.001590224762	719
3	2011	0.001593441916	720
3	2013	0.001593441916	721
3	2015	0.001596111577	722
3	2017	0.001596111577	723
3	2020	0.001598071454	724
3	2024	0.001601920337	725
3	2026	0.001602397955	726
3	2028	0.001602397955	727
3	2030	0.001606614077	728
3	2032	0.001606614077	729
3	2035	0.001610087908	730
3	2038	0.001616417627	731
3	2042	0.001617635831	732
3	2044	0.0016221055	733
3	2046	0.0016221055	734
3	2049	0.001625648446	735
3	2051	0.001629266475	736
3	2053	0.001629266475	737
3	2056	0.001633586301	738
3	2059	0.001638173878	739
3	2062	0.001639580988	740
3	2066	0.00164237981	741
3	2069	0.001644616311	742
3	2073	0.001644929571	743
3	2075	0.001650099927	744
3	2079	0.001654323561	745
3	2082	0.001654712779	746
3	2084	0.001654712779	747
3	2086	0.001658846506	748
3	2088	0.001658846506	749
3	2090	0.001662228082	750
3	2094	0.0016633211	751
3	2097	0.001670992185	752
3	2100	0.001671112324	753
3	2104	0.001675002449	754
3	2107	0.001678637271	755
3	2111	0.00168410125	756
3	2113	0.001684113483	757
3	2117	0.001685969308	758
3	2121	0.001690280565	759
3	2124	0.001691678516	760
3	2127	0.001695509676	761
3	2129	0.001695509676	762
3	2132	0.001700179306	763
3	2134	0.001701547644	764
3	2137	0.001703484353	765
3	2139	0.001703484353	766
3	2142	0.001705543997	767
3	2145	0.001708740289	768
3	2147	0.001711926107	769
3	2149	0.001711926107	770
3	2151	0.001715068208	771
3	2153	0.001715068208	772
3	2155	0.001716454526	773
3	2159	0.001716698279	774
3	2163	0.001721978581	775
3	2166	0.001724001853	776
3	2168	0.001724001853	777
3	2171	0.001725241755	778
3	2174	0.001726360267	779
3	2178	0.001727722549	780
3	2180	0.001728623723	781
3	2182	0.001728623723	782
3	2185	0.001731851831	783
3	2187	0.001735975113	784
3	2189	0.001735975113	785
3	2192	0.001741649491	786
3	2195	0.001743442751	787
3	2199	0.001746176887	788
3	2203	0.001750047143	789
3	2206	0.001751779546	790
3	2208	0.001751779546	791
3	2211	0.001752508364	792
3	2214	0.001756617915	793
3	2216	0.001759087899	794
3	2218	0.001759087899	795
3	2221	0.001763602597	796
3	2224	0.001767770353	797
3	2226	0.001767770353	798
3	2229	0.001769063148	799
3	2231	0.001774376399	800
3	2233	0.001774376399	801
3	2236	0.001774487471	802
3	2239	0.001778277401	803
3	2241	0.001778277401	804
3	2244	0.001784173275	805
3	2247	0.00178584585	806
3	2251	0.001787694299	807
3	2254	0.001793459174	808
3	2256	0.001793459174	809
3	2259	0.001797425002	810
3	2262	0.001799015984	811
3	2265	0.001804830158	812
3	2267	0.001804830158	813
3	2270	0.001805532929	814
3	2274	0.001811852517	815
3	2278	0.001812939667	816
3	2281	0.001813289726	817
3	2284	0.001819607444	818
3	2288	0.00182045514	819
3	2291	0.001825038697	820
3	2295	0.00182711953	821
3	2298	0.001827963215	822
3	2300	0.001827963215	823
3	2303	0.001831854824	824
3	2305	0.001831868681	825
3	2307	0.001831868681	826
3	2309	0.001839500359	827
3	2313	0.001840498696	828
3	2316	0.001841563499	829
3	2319	0.001847855203	830
3	2323	0.001849944404	831
3	2326	0.001854191125	832
3	2328	0.001854191125	833
3	2331	0.001854240603	834
3	2334	0.00186040743	835
3	2336	0.001861570058	836
3	2339	0.001864769443	837
3	2343	0.001866088163	838
3	2346	0.001871946483	839
3	2348	0.001874352524	840
3	2352	0.001875534384	841
3	2355	0.00187564373	842
3	2359	0.001880238924	843
3	2362	0.001885625959	844
3	2366	0.001886536675	845
3	2369	0.001891036951	846
3	2373	0.001893121174	847
3	2376	0.001894096667	848
3	2380	0.001901125659	849
3	2382	0.001901133522	850
3	2384	0.001901133522	851
3	2386	0.001903291792	852
3	2390	0.001903793796	853
3	2393	0.001905448583	854
3	2395	0.001908534908	855
3	2398	0.001913586928	856
3	2400	0.001913586928	857
3	2403	0.001915132908	858
3	2405	0.00191687637	859
3	2407	0.00191687637	860
3	2410	0.00192018479	861
3	2412	0.001922608651	862
3	2416	0.001926007007	863
3	2418	0.001929249009	864
3	2420	0.001929249009	865
3	2423	0.001929708712	866
3	2426	0.001934120053	867
3	2428	0.001934120053	868
3	2431	0.001935142404	869
3	2435	0.001936738269	870
3	2438	0.001937859847	871
3	2441	0.001939397976	872
3	2445	0.001942583673	873
3	2448	0.001945389412	874
3	2451	0.001947811435	875
3	2453	0.001947811435	876
3	2455	0.001953143812	877
3	2459	0.001953510459	878
3	2461	0.001960488345	879
3	2465	0.001960679193	880
3	2468	0.001961590541	881
3	2470	0.001961590541	882
3	2472	0.00196305022	883
3	2474	0.00196305022	884
3	2477	0.001969169343	885
3	2480	0.001969911268	886
3	2482	0.001969911268	887
3	2485	0.001971537588	888
3	2488	0.001975042516	889
3	2490	0.001979101922	890
3	2493	0.001981082056	891
3	2495	0.001981082056	892
3	2498	0.001984105717	893
3	2500	0.001988922499	894
3	2504	0.001990860882	895
3	2507	0.001991658114	896
3	2510	0.001994850726	897
3	2514	0.001998831391	898
3	2517	0.002003600833	899
3	2521	0.002007785406	900
3	2524	0.002010908534	901
3	2526	0.002010908534	902
3	2529	0.002011050047	903
3	2531	0.002015096557	904
3	2535	0.002020807197	905
3	2537	0.002024061754	906
3	2541	0.002024668278	907
3	2543	0.002025215298	908
3	2546	0.00203118725	909
3	2550	0.002034268233	910
3	2553	0.002034583806	911
3	2555	0.002034583806	912
3	2558	0.002037661384	913
3	2561	0.002043475362	914
3	2563	0.002043475362	915
3	2566	0.002045711954	916
3	2569	0.002050963678	917
3	2571	0.002053197872	918
3	2575	0.002056328953	919
3	2578	0.002058010161	920
3	2580	0.002058010161	921
3	2583	0.002060707107	922
3	2586	0.002062214456	923
3	2588	0.002062982528	924
3	2590	0.002062982528	925
3	2593	0.002063530897	926
3	2596	0.0020658371	927
3	2600	0.002069504129	928
3	2604	0.00207149883	929
3	2607	0.002072854294	930
3	2611	0.002073172886	931
3	2615	0.002076651713	932
3	2617	0.002082745297	933
3	2621	0.002082900448	934
3	2624	0.002090008819	935
3	2628	0.002092505556	936
3	2632	0.002096033291	937
3	2634	0.002099052774	938
3	2636	0.002099052774	939
3	2639	0.002099164401	940
3	2642	0.002100784325	941
3	2645	0.002103019634	942
3	2647	0.002103019634	943
3	2650	0.002105315195	944
3	2654	0.002107237212	945
3	2657	0.002108488567	946
3	2661	0.002109733818	947
3	2663	0.002114045653	948
3	2665	0.002114045653	949
3	2667	0.002115266846	950
3	2669	0.002115266846	951
3	2672	0.002117121123	952
3	2674	0.002117701389	953
3	2676	0.002117701389	954
3	2679	0.002120539504	955
3	2683	0.002124388456	956
3	2686	0.002127091632	957
3	2690	0.002133374724	958
3	2693	0.002133797467	959
3	2696	0.002138631489	960
3	2700	0.002142458454	961
3	2702	0.002142824879	962
3	2706	0.002143621321	963
3	2708	0.002150717371	964
3	2710	0.002150717371	965
3	2713	0.002151809524	966
3	2716	0.002153938323	967
3	2720	0.002156305161	968
3	2723	0.002160490788	969
3	2727	0.002166159845	970
3	2730	0.002169533754	971
3	2732	0.002169879505	972
3	2736	0.002177166621	973
3	2738	0.002177361898	974
3	2741	0.002182169388	975
3	2743	0.002182169388	976
3	2746	0.002185341906	977
3	2749	0.002190813835	978
3	2751	0.002190813835	979
3	2754	0.002192703752	980
3	2756	0.002199257294	981
3	2760	0.0022015055	982
3	2763	0.002204992534	983
3	2766	0.002205993079	984
3	2768	0.002206329439	985
3	2772	0.002212037134	986
3	2774	0.002212526158	987
3	2776	0.002212526158	988
3	2779	0.002213212296	989
3	2782	0.002216237938	990
3	2785	0.002222670783	991
3	2787	0.002222670783	992
3	2790	0.002222691958	993
3	2793	0.002227840143	994
3	2796	0.002229547781	995
3	2798	0.002229547781	996
3	2801	0.002236177168	997
3	2804	0.002236372743	998
3	2806	0.002236372743	999
3	2809	0.002237547786	1000
3	2813	0.002239006852	1001
3	2815	0.002245481814	1002
3	2817	0.002245481814	1003
3	2820	0.00224705632	1004
3	2823	0.002248010189	1005
3	2825	0.002248010189	1006
3	2827	0.002254119424	1007
3	2831	0.002256139319	1008
3	2833	0.002259749586	1009
3	2836	0.002264174944	1010
3	2838	0.002264174944	1011
3	2841	0.002266073322	1012
3	2843	0.00226737607	1013
3	2846	0.002270208658	1014
3	2848	0.002270208658	1015
3	2851	0.002271092243	1016
3	2854	0.002271546467	1017
3	2858	0.002273034868	1018
3	2860	0.002273798667	1019
3	2862	0.002273798667	1020
3	2865	0.002274076762	1021
3	2868	0.002275118903	1022
3	2872	0.002278691956	1023
3	2874	0.002279326862	1024
3	2876	0.002279326862	1025
3	2879	0.002282195005	1026
3	2883	0.002284556077	1027
3	2886	0.002286143825	1028
3	2890	0.002288596645	1029
3	2894	0.002291791779	1030
3	2897	0.002292267407	1031
3	2899	0.002292267407	1032
3	2902	0.002296066382	1033
3	2905	0.002300627085	1034
3	2908	0.002301803395	1035
3	2911	0.002303873647	1036
3	2915	0.002308374398	1037
3	2918	0.002313052248	1038
3	2921	0.002315361168	1039
3	2923	0.002315361168	1040
3	2926	0.002315618121	1041
3	2930	0.002321118314	1042
3	2932	0.002323184911	1043
3	2936	0.002330713734	1044
3	2939	0.002332558766	1045
3	2941	0.002332558766	1046
3	2944	0.002334945608	1047
3	2947	0.002336393965	1048
3	2951	0.002339815579	1049
3	2954	0.002343134528	1050
3	2956	0.002343134528	1051
3	2959	0.002345334529	1052
3	2961	0.002345735895	1053
3	2963	0.002345735895	1054
3	2965	0.002350703522	1055
3	2967	0.002350703522	1056
3	2970	0.002353476635	1057
3	2973	0.002356521044	1058
3	2975	0.002356643139	1059
3	2977	0.002356643139	1060
3	2980	0.002357713272	1061
3	2983	0.002362724784	1062
3	2985	0.002362724784	1063
3	2988	0.002367560183	1064
3	2992	0.002369019661	1065
3	2994	0.002372156386	1066
3	2996	0.002372156386	1067
3	2999	0.002374249604	1068
3	3002	0.002378547923	1069
3	3005	0.002379770844	1070
3	3008	0.002380930762	1071
3	3010	0.002381677651	1072
3	3014	0.002383302042	1073
3	3017	0.002390967187	1074
3	3019	0.002390967187	1075
3	3022	0.002392106073	1076
3	3025	0.002400265182	1077
3	3027	0.002400758045	1078
3	3031	0.002403447963	1079
3	3034	0.002407348308	1080
3	3038	0.002410289247	1081
3	3041	0.002415270708	1082
3	3043	0.002415270708	1083
3	3046	0.002416232382	1084
3	3050	0.00241969548	1085
3	3052	0.002419836713	1086
3	3056	0.002427000238	1087
3	3059	0.002427675572	1088
3	3062	0.002433466503	1089
3	3065	0.002434800669	1090
3	3069	0.002434972967	1091
3	3073	0.002443384212	1092
3	3075	0.002444656942	1093
3	3077	0.002444656942	1094
3	3079	0.002446243035	1095
3	3081	0.002446243035	1096
3	3084	0.002448207886	1097
3	3086	0.002449503836	1098
3	3090	0.002451953306	1099
3	3092	0.002451965893	1100
3	3095	0.002454957861	1101
3	3099	0.002456557343	1102
3	3102	0.002462044145	1103
3	3105	0.002462871613	1104
3	3109	0.0024654859	1105
3	3112	0.00246563898	1106
3	3115	0.002470417699	1107
3	3117	0.002470417699	1108
3	3120	0.002472814601	1109
3	3123	0.002478055462	1110
3	3126	0.002478448435	1111
3	3129	0.002479581463	1112
3	3131	0.002479581463	1113
3	3134	0.002482779484	1114
3	3136	0.00248331109	1115
3	3138	0.00248331109	1116
3	3140	0.002489509401	1117
3	3142	0.002489509401	1118
3	3145	0.002490581126	1119
3	3148	0.00249473193	1120
3	3152	0.002494922709	1121
3	3154	0.002496789354	1122
3	3156	0.002496789354	1123
3	3159	0.00250229455	1124
3	3161	0.002506469951	1125
3	3165	0.002508228857	1126
3	3167	0.002515445013	1127
3	3171	0.002517840692	1128
3	3173	0.002523620649	1129
3	3177	0.002524780427	1130
3	3180	0.002531162308	1131
3	3182	0.002531162308	1132
3	3185	0.002534276719	1133
3	3188	0.002538854089	1134
3	3191	0.002539976829	1135
3	3195	0.002542083304	1136
3	3198	0.002542955576	1137
3	3200	0.002542955576	1138
3	3202	0.002544227311	1139
3	3204	0.002544227311	1140
3	3207	0.002544612719	1141
3	3210	0.002549108591	1142
3	3214	0.002550134259	1143
3	3217	0.002554237968	1144
3	3220	0.002556390535	1145
3	3223	0.002558903814	1146
3	3227	0.002561242887	1147
3	3230	0.002567205144	1148
3	3232	0.002567205144	1149
3	3235	0.002570865492	1150
3	3237	0.002573985247	1151
3	3239	0.002573985247	1152
3	3241	0.002576390131	1153
3	3245	0.002577422967	1154
3	3248	0.002582295086	1155
3	3251	0.002584275761	1156
3	3253	0.002584275761	1157
3	3256	0.002585106487	1158
3	3259	0.002592424512	1159
3	3261	0.002592424512	1160
3	3264	0.002594315846	1161
3	3266	0.002594722123	1162
3	3269	0.002596826826	1163
3	3273	0.002603403585	1164
3	3275	0.002603889705	1165
3	3277	0.002603889705	1166
3	3280	0.002606803707	1167
3	3282	0.002607226107	1168
3	3285	0.002609416858	1169
3	3287	0.002609416858	1170
3	3289	0.002611704564	1171
3	3292	0.002613150062	1172
3	3295	0.00261455443	1173
3	3299	0.002615660622	1174
3	3301	0.0026184033	1175
3	3303	0.0026184033	1176
3	3306	0.002625317193	1177
3	3309	0.00262615813	1178
3	3313	0.002626903259	1179
3	3317	0.00262926573	1180
3	3320	0.002633944694	1181
3	3323	0.002635655954	1182
3	3325	0.002635655954	1183
3	3327	0.002642569347	1184
3	3331	0.002643453465	1185
3	3334	0.002651746192	1186
3	3336	0.002651746192	1187
3	3339	0.002652416348	1188
3	3342	0.002654601534	1189
3	3346	0.002658660121	1190
3	3349	0.002661117189	1191
3	3353	0.002662224091	1192
3	3356	0.00266667988	1193
3	3358	0.00266667988	1194
3	3360	0.002668354173	1195
3	3362	0.002668354173	1196
3	3365	0.002669605548	1197
3	3368	0.002673446586	1198
3	3370	0.002676874987	1199
3	3373	0.002678449415	1200
3	3375	0.002678449415	1201
3	3378	0.002682694357	1202
3	3381	0.002684188671	1203
3	3385	0.00268607898	1204
3	3388	0.002687935369	1205
3	3390	0.002687935369	1206
3	3393	0.002688848797	1207
3	3396	0.002693063875	1208
3	3398	0.002693063875	1209
3	3401	0.002696949935	1210
3	3404	0.00270016493	1211
3	3408	0.002706683628	1212
3	3411	0.002707208679	1213
3	3415	0.002713152245	1214
3	3418	0.002713993909	1215
3	3422	0.002715567778	1216
3	3424	0.002717887165	1217
3	3426	0.002717887165	1218
3	3429	0.002717954947	1219
3	3431	0.002720151121	1220
3	3433	0.002720151121	1221
3	3436	0.002720547366	1222
3	3439	0.002721672305	1223
3	3441	0.002721672305	1224
3	3444	0.002725660931	1225
3	3448	0.00272942669	1226
3	3451	0.002731281202	1227
3	3455	0.002735210139	1228
3	3458	0.00273939451	1229
3	3460	0.002741079449	1230
3	3463	0.002745314527	1231
3	3467	0.002749280844	1232
3	3470	0.002750554683	1233
3	3474	0.002752686049	1234
3	3477	0.002752789749	1235
3	3479	0.002752789749	1236
3	3482	0.002754067325	1237
3	3485	0.002760085572	1238
3	3487	0.002760085572	1239
3	3490	0.002762600238	1240
3	3493	0.002764603261	1241
3	3496	0.002765901104	1242
3	3498	0.002765901104	1243
3	3500	0.00277186005	1244
3	3504	0.002771966807	1245
3	3507	0.002773376403	1246
3	3509	0.002777232204	1247
3	3513	0.002779695383	1248
3	3516	0.002782465682	1249
3	3519	0.002783643699	1250
3	3522	0.00278575786	1251
3	3526	0.002789856207	1252
3	3529	0.002795571292	1253
3	3531	0.002795571292	1254
3	3534	0.002797795177	1255
3	3537	0.002799872706	1256
3	3539	0.002801574731	1257
3	3541	0.002801574731	1258
3	3544	0.002809046941	1259
3	3546	0.00280952838	1260
3	3550	0.002813902348	1261
3	3553	0.00281417017	1262
3	3556	0.002821419715	1263
3	3560	0.002823745513	1264
3	3562	0.002826838412	1265
3	3566	0.00283215558	1266
3	3569	0.002835996859	1267
3	3571	0.002835996859	1268
3	3574	0.002837381873	1269
3	3576	0.002841482772	1270
3	3578	0.002841482772	1271
3	3581	0.002844177846	1272
3	3583	0.002844228689	1273
3	3587	0.002849289631	1274
3	3591	0.002850941437	1275
3	3593	0.002852991722	1276
3	3595	0.002852991722	1277
3	3598	0.002859580934	1278
3	3601	0.002860121756	1279
3	3604	0.002865229097	1280
3	3608	0.002868206703	1281
3	3611	0.002873794865	1282
3	3615	0.002878014593	1283
3	3619	0.002880853957	1284
3	3621	0.002883072507	1285
3	3624	0.002884253778	1286
3	3628	0.002888051792	1287
3	3631	0.002890175592	1288
3	3635	0.002892974739	1289
3	3637	0.00289323576	1290
3	3640	0.002899554101	1291
3	3644	0.002899968786	1292
3	3647	0.002903849422	1293
3	3651	0.00290392937	1294
3	3654	0.002907249765	1295
3	3657	0.002909772091	1296
3	3661	0.002915011447	1297
3	3663	0.002917700192	1298
3	3667	0.002922705596	1299
3	3669	0.002925183065	1300
3	3673	0.002925824938	1301
3	3676	0.002928976817	1302
3	3679	0.002931463519	1303
3	3682	0.002936295877	1304
3	3684	0.002936295877	1305
3	3687	0.002938963556	1306
3	3691	0.00294305464	1307
3	3694	0.002944685014	1308
3	3698	0.002944943479	1309
3	3700	0.00294811142	1310
3	3702	0.00294811142	1311
3	3705	0.002952366939	1312
3	3707	0.002956515814	1313
3	3709	0.002956515814	1314
3	3711	0.002959134971	1315
3	3715	0.002961639478	1316
3	3718	0.002966428346	1317
3	3720	0.002968622531	1318
3	3723	0.002970135521	1319
3	3725	0.002970135521	1320
3	3728	0.002973339891	1321
3	3730	0.00297858134	1322
3	3732	0.00297858134	1323
3	3735	0.002980943755	1324
3	3738	0.002983028937	1325
3	3740	0.002983028937	1326
3	3743	0.002985518192	1327
3	3745	0.002991963042	1328
3	3747	0.002991963042	1329
3	3750	0.002993630934	1330
3	3753	0.002994597644	1331
3	3755	0.002994597644	1332
3	3757	0.002998717114	1333
3	3761	0.00300090238	1334
3	3764	0.003005131745	1335
3	3766	0.003005131745	1336
3	3769	0.00300849166	1337
3	3771	0.003012894174	1338
3	3773	0.003012894174	1339
3	3775	0.003014140781	1340
3	3777	0.003014140781	1341
3	3780	0.003015457368	1342
3	3782	0.003017908569	1343
3	3785	0.003018911875	1344
3	3789	0.003024900209	1345
3	3792	0.003025275746	1346
3	3794	0.003025275746	1347
3	3797	0.003031645475	1348
3	3800	0.003034857815	1349
3	3802	0.003034857815	1350
3	3804	0.003036172719	1351
3	3806	0.003036172719	1352
3	3809	0.003039861818	1353
3	3811	0.003041852584	1354
3	3813	0.003041852584	1355
3	3816	0.003045017603	1356
3	3819	0.003050081907	1357
3	3822	0.003051497286	1358
3	3824	0.003051497286	1359
3	3826	0.003056149386	1360
3	3830	0.003058326327	1361
3	3833	0.003058527258	1362
3	3835	0.003058527258	1363
3	3837	0.003065572467	1364
3	3841	0.003066143565	1365
3	3845	0.003069306196	1366
3	3847	0.003075079177	1367
3	3851	0.003077957953	1368
3	3854	0.003081137772	1369
3	3858	0.00308503975	1370
3	3861	0.00308599706	1371
3	3863	0.00308599706	1372
3	3866	0.003090404228	1373
3	3868	0.003090601287	1374
3	3870	0.003090601287	1375
3	3873	0.003092542837	1376
3	3875	0.003093100166	1377
3	3878	0.00309663325	1378
3	3880	0.00309663325	1379
3	3883	0.003102098778	1380
3	3886	0.0031065197	1381
3	3888	0.0031065197	1382
3	3891	0.003110461473	1383
3	3894	0.003111859741	1384
3	3897	0.003112815953	1385
3	3901	0.003116327365	1386
3	3905	0.003117699122	1387
3	3909	0.003120896535	1388
3	3912	0.003121272277	1389
3	3914	0.003121272277	1390
3	3917	0.003124079323	1391
3	3921	0.003125430748	1392
3	3923	0.003129499055	1393
3	3925	0.003129499055	1394
3	3927	0.003131256922	1395
3	3929	0.003131256922	1396
3	3931	0.003133305091	1397
3	3933	0.003133305091	1398
3	3936	0.003135277086	1399
3	3939	0.003137263213	1400
3	3943	0.003139226596	1401
3	3946	0.003141192524	1402
3	3948	0.003141192524	1403
3	3950	0.003144161574	1404
3	3952	0.003144161574	1405
3	3955	0.003146782862	1406
3	3958	0.003150031089	1407
3	3961	0.003152808783	1408
3	3963	0.003152808783	1409
3	3966	0.003155669987	1410
3	3970	0.003159440854	1411
3	3972	0.003161401887	1412
3	3974	0.003161401887	1413
3	3976	0.003165587024	1414
3	3980	0.003167882023	1415
3	3982	0.003170224118	1416
3	3986	0.003170275589	1417
3	3989	0.003178817043	1418
3	3993	0.003179237187	1419
3	3995	0.003183055909	1420
3	3999	0.003187509631	1421
3	4002	0.003189021909	1422
3	4006	0.003190465142	1423
3	4010	0.003194042108	1424
3	4013	0.003195453202	1425
3	4015	0.003198105302	1426
3	4019	0.003200787182	1427
3	4022	0.00320267726	1428
3	4026	0.003205626527	1429
3	4029	0.003207473629	1430
3	4032	0.003207516008	1431
3	4034	0.003207516008	1432
3	4037	0.003208833783	1433
3	4040	0.003215881807	1434
3	4042	0.003215881807	1435
3	4045	0.003218621406	1436
3	4049	0.003219973029	1437
3	4051	0.003224393084	1438
3	4053	0.003224393084	1439
3	4055	0.003226223463	1440
3	4057	0.003226223463	1441
3	4059	0.003227305003	1442
3	4063	0.003228989908	1443
3	4066	0.003232233795	1444
3	4068	0.003232233795	1445
3	4071	0.003235535555	1446
3	4073	0.003237845123	1447
3	4075	0.003237845123	1448
3	4078	0.00323971323	1449
3	4080	0.003244628304	1450
3	4082	0.003244628304	1451
3	4085	0.003248672148	1452
3	4087	0.003249760082	1453
3	4089	0.003249760082	1454
3	4091	0.00325409055	1455
3	4094	0.003256580461	1456
3	4096	0.003256580461	1457
3	4099	0.003256768363	1458
3	4102	0.00325961609	1459
3	4104	0.00325961609	1460
3	4107	0.003266533403	1461
3	4110	0.003266724342	1462
3	4114	0.003272633427	1463
3	4117	0.003274688837	1464
3	4119	0.003274688837	1465
3	4122	0.003278392101	1466
3	4125	0.00328099591	1467
3	4128	0.003282045785	1468
3	4132	0.003285600338	1469
3	4135	0.003285932516	1470
3	4139	0.003290050771	1471
3	4142	0.003293876941	1472
3	4145	0.003295530342	1473
3	4149	0.003299275953	1474
3	4151	0.003302932127	1475
3	4153	0.003302932127	1476
3	4156	0.003303593343	1477
3	4159	0.003305891504	1478
3	4161	0.00331184486	1479
3	4163	0.00331184486	1480
3	4166	0.00331276033	1481
3	4168	0.003313376069	1482
3	4172	0.003317944236	1483
3	4175	0.00332252091	1484
3	4177	0.00332252091	1485
3	4180	0.003326766021	1486
3	4183	0.003330057859	1487
3	4186	0.003331049835	1488
3	4188	0.003331049835	1489
3	4191	0.00333370041	1490
3	4195	0.003334842054	1491
3	4198	0.003337555959	1492
3	4201	0.003338811225	1493
3	4205	0.003340805991	1494
3	4207	0.003341776945	1495
3	4209	0.003341776945	1496
3	4212	0.003348148581	1497
3	4214	0.003351112009	1498
3	4216	0.003351112009	1499
3	4219	0.003357773095	1500
3	4221	0.003359583343	1501
3	4225	0.003363162976	1502
3	4227	0.003364774927	1503
3	4229	0.003364774927	1504
3	4231	0.003367652683	1505
3	4234	0.003370021106	1506
3	4236	0.003370021106	1507
3	4239	0.003373064769	1508
3	4242	0.00337869459	1509
3	4245	0.003381293456	1510
3	4249	0.00338276819	1511
3	4252	0.003383205014	1512
3	4255	0.00338881669	1513
3	4257	0.00338881669	1514
3	4260	0.003391461383	1515
3	4263	0.0033977561	1516
3	4265	0.0033977561	1517
3	4268	0.003400060326	1518
3	4271	0.003404679226	1519
3	4275	0.003404931954	1520
3	4277	0.003409185894	1521
3	4279	0.003409185894	1522
3	4282	0.00341221151	1523
3	4286	0.003415029208	1524
3	4289	0.003417471991	1525
3	4293	0.003419423657	1526
3	4297	0.003421723237	1527
3	4299	0.003422886933	1528
3	4301	0.003422886933	1529
3	4303	0.003425900393	1530
3	4307	0.003427012765	1531
3	4309	0.00342946341	1532
3	4311	0.00342946341	1533
3	4313	0.003432094819	1534
3	4315	0.003432094819	1535
3	4318	0.003433809923	1536
3	4321	0.003437665682	1537
3	4325	0.003443328937	1538
3	4329	0.003445058421	1539
3	4331	0.003445462839	1540
3	4333	0.003445462839	1541
3	4336	0.003446799988	1542
3	4338	0.003448349264	1543
3	4340	0.003448349264	1544
3	4343	0.003449835276	1545
3	4346	0.003457011984	1546
3	4348	0.003457136167	1547
3	4351	0.003462309419	1548
3	4354	0.003465057167	1549
3	4356	0.003465057167	1550
3	4359	0.003465842882	1551
3	4362	0.003467242873	1552
3	4365	0.003469895498	1553
3	4367	0.003469895498	1554
3	4369	0.003472920512	1555
3	4373	0.003476631384	1556
3	4376	0.003478574892	1557
3	4379	0.00348104946	1558
3	4382	0.003483111643	1559
3	4386	0.003486904469	1560
3	4389	0.003487701271	1561
3	4393	0.003490193062	1562
3	4396	0.003491489944	1563
3	4398	0.003491489944	1564
3	4401	0.003496657688	1565
3	4405	0.003498672452	1566
3	4408	0.003500171121	1567
3	4411	0.003500478341	1568
3	4413	0.003500478341	1569
3	4416	0.003508388736	1570
3	4418	0.003508856154	1571
3	4420	0.003508856154	1572
3	4422	0.00351253208	1573
3	4424	0.00351253208	1574
3	4427	0.003516819863	1575
3	4429	0.003517654269	1576
3	4433	0.003526563183	1577
3	4435	0.003526960498	1578
3	4439	0.003528177462	1579
3	4442	0.003532053795	1580
3	4445	0.00353427181	1581
3	4449	0.003535632172	1582
3	4452	0.003539464767	1583
3	4455	0.003543700464	1584
3	4457	0.003543700464	1585
3	4459	0.003547119209	1586
3	4463	0.003548829748	1587
3	4466	0.003551543256	1588
3	4469	0.003552880555	1589
3	4473	0.003555011524	1590
3	4477	0.003562008408	1591
3	4480	0.003562230333	1592
3	4483	0.003569500437	1593
3	4485	0.003569500437	1594
3	4488	0.003570594698	1595
3	4490	0.003570882843	1596
3	4492	0.003570882843	1597
3	4495	0.003572529811	1598
3	4498	0.003575228848	1599
3	4501	0.003576363634	1600
3	4503	0.003579852547	1601
3	4505	0.003579852547	1602
3	4507	0.003581395962	1603
3	4509	0.003581395962	1604
3	4512	0.003586038805	1605
3	4514	0.003588216941	1606
3	4518	0.003588481144	1607
3	4521	0.003590602426	1608
3	4525	0.003591147192	1609
3	4527	0.003593655622	1610
3	4531	0.003596936024	1611
3	4534	0.003597863986	1612
3	4537	0.00360419278	1613
3	4541	0.003604364723	1614
3	4544	0.003606330088	1615
3	4546	0.003606330088	1616
3	4549	0.003610168231	1617
3	4551	0.003616313879	1618
3	4553	0.003616313879	1619
3	4556	0.003616517639	1620
3	4558	0.003618440334	1621
3	4560	0.003618440334	1622
3	4562	0.003620937255	1623
3	4566	0.003625153586	1624
3	4568	0.003625973594	1625
3	4570	0.003625973594	1626
3	4573	0.00362751696	1627
3	4576	0.003631261638	1628
3	4579	0.003634361694	1629
3	4581	0.003634361694	1630
3	4584	0.003639279371	1631
3	4586	0.003639508921	1632
3	4590	0.003642056343	1633
3	4593	0.003645492816	1634
3	4597	0.003651879719	1635
3	4599	0.003652775863	1636
3	4601	0.003652775863	1637
3	4604	0.003654783381	1638
3	4606	0.003660265254	1639
3	4610	0.003663583708	1640
3	4613	0.003667852626	1641
3	4615	0.003667852626	1642
3	4618	0.003670364222	1643
3	4621	0.003672084585	1644
3	4624	0.003674643324	1645
3	4626	0.003674643324	1646
3	4629	0.003676192323	1647
3	4631	0.003677251778	1648
3	4633	0.003677251778	1649
3	4636	0.00368313537	1650
3	4639	0.003686841386	1651
3	4641	0.003686841386	1652
3	4643	0.003688472185	1653
3	4645	0.003688472185	1654
3	4648	0.003690626153	1655
3	4650	0.003693988143	1656
3	4654	0.003694838288	1657
3	4656	0.003699696547	1658
3	4658	0.003699696547	1659
3	4660	0.00370342269	1660
3	4662	0.00370342269	1661
3	4665	0.00370417356	1662
3	4668	0.003706608782	1663
3	4672	0.003710949739	1664
3	4675	0.003712006792	1665
3	4677	0.003712006792	1666
3	4680	0.003714362722	1667
3	4683	0.00371542035	1668
3	4685	0.00371542035	1669
3	4688	0.003715589808	1670
3	4691	0.003723125998	1671
3	4693	0.003725082042	1672
3	4695	0.003725082042	1673
3	4697	0.00372639902	1674
3	4700	0.003728859286	1675
3	4704	0.00373097797	1676
3	4707	0.003735056752	1677
3	4709	0.003735056752	1678
3	4712	0.003738241738	1679
3	4715	0.00373846865	1680
3	4718	0.003742885648	1681
3	4720	0.003742885648	1682
3	4723	0.003744910855	1683
3	4727	0.003745925206	1684
3	4730	0.003749887	1685
3	4734	0.003750722145	1686
3	4737	0.003757006243	1687
3	4740	0.003758133147	1688
3	4743	0.003763734412	1689
3	4745	0.003763734412	1690
3	4747	0.003765304733	1691
3	4749	0.003765304733	1692
3	4752	0.003766815956	1693
3	4755	0.003769964606	1694
3	4757	0.003772878664	1695
3	4760	0.003776466842	1696
3	4762	0.003776466842	1697
3	4765	0.003776626647	1698
3	4768	0.003779627091	1699
3	4771	0.003785097791	1700
3	4773	0.003785097791	1701
3	4776	0.003786399617	1702
3	4778	0.003788373476	1703
3	4780	0.003788373476	1704
3	4782	0.003791661637	1705
3	4786	0.003796020705	1706
3	4788	0.003796873161	1707
3	4792	0.003798055274	1708
3	4795	0.00379930863	1709
3	4798	0.003800503946	1710
3	4800	0.003800503946	1711
3	4803	0.003804168734	1712
3	4806	0.003805979029	1713
3	4808	0.003805979029	1714
3	4811	0.003807178958	1715
3	4814	0.003808513588	1716
3	4818	0.003814179479	1717
3	4821	0.003814222436	1718
3	4824	0.003815467216	1719
3	4828	0.00381591335	1720
3	4830	0.003817695107	1721
3	4832	0.003817695107	1722
3	4835	0.003821292805	1723
3	4837	0.003823496217	1724
3	4841	0.003826688787	1725
3	4844	0.003832314774	1726
3	4846	0.003832314774	1727
3	4849	0.0038328637	1728
3	4851	0.003838109259	1729
3	4855	0.003842577606	1730
3	4859	0.003846868693	1731
3	4861	0.003846900348	1732
3	4863	0.003846900348	1733
3	4865	0.00385099644	1734
3	4867	0.00385099644	1735
3	4870	0.003853165573	1736
3	4872	0.003856292611	1737
3	4874	0.003856292611	1738
3	4877	0.003856379488	1739
3	4880	0.00386163996	1740
3	4882	0.003862524035	1741
3	4885	0.003867364258	1742
3	4887	0.003867364258	1743
3	4889	0.003870179655	1744
3	4891	0.003870179655	1745
3	4894	0.003870798669	1746
3	4898	0.003878492015	1747
3	4900	0.003879952164	1748
3	4903	0.003882238973	1749
3	4906	0.003883633735	1750
3	4908	0.003883633735	1751
3	4911	0.003888194619	1752
3	4914	0.003889212688	1753
3	4916	0.003889212688	1754
3	4919	0.003890846159	1755
3	4922	0.003892695226	1756
3	4925	0.003894935708	1757
3	4929	0.003897854863	1758
3	4932	0.003898869023	1759
3	4934	0.003898869023	1760
3	4936	0.003900132461	1761
3	4938	0.003900132461	1762
3	4940	0.00390364823	1763
3	4944	0.003904678991	1764
3	4947	0.003908329424	1765
3	4949	0.003908329424	1766
3	4952	0.003911937657	1767
3	4955	0.003915129164	1768
3	4959	0.003918026669	1769
3	4961	0.003923219809	1770
3	4963	0.003923219809	1771
3	4965	0.00392617529	1772
3	4969	0.003926464971	1773
3	4971	0.003928500966	1774
3	4975	0.003929295534	1775
3	4978	0.003929502646	1776
3	4980	0.003929502646	1777
3	4982	0.003933298477	1778
3	4984	0.003933298477	1779
3	4987	0.00393764696	1780
3	4990	0.003938473529	1781
3	4992	0.003938473529	1782
3	4995	0.003942570342	1783
3	4998	0.003944625581	1784
3	5000	0.003944625581	1785
3	5003	0.003946475302	1786
3	5005	0.003950678169	1787
3	5009	0.003950853704	1788
3	5011	0.003955531957	1789
3	5013	0.003955531957	1790
3	5015	0.003956832623	1791
3	5019	0.003960584577	1792
3	5022	0.003963819066	1793
3	5025	0.00396639816	1794
3	5028	0.00396663876	1795
3	5031	0.003969255056	1796
3	5033	0.003969255056	1797
3	5036	0.003973958689	1798
3	5039	0.003977726825	1799
3	5041	0.003977726825	1800
3	5044	0.003980965449	1801
3	5047	0.003982518286	1802
3	5050	0.003984242491	1803
3	5053	0.003986408274	1804
3	5057	0.003990572955	1805
3	5060	0.003996295189	1806
3	5064	0.003997245524	1807
3	5067	0.004002344121	1808
3	5070	0.004003807797	1809
3	5072	0.004003807797	1810
3	5075	0.004011079951	1811
3	5078	0.004013392546	1812
3	5081	0.004014660652	1813
3	5085	0.0040172088	1814
3	5089	0.00401993163	1815
3	5091	0.004021356299	1816
3	5095	0.004025793635	1817
3	5098	0.004029895951	1818
3	5100	0.004029895951	1819
3	5103	0.004032059094	1820
3	5105	0.004038385162	1821
3	5109	0.004038910897	1822
3	5111	0.004041233672	1823
3	5115	0.004047924304	1824
3	5118	0.004049337241	1825
3	5120	0.004049337241	1826
3	5123	0.00404984295	1827
3	5125	0.004055563445	1828
3	5129	0.004056584667	1829
3	5132	0.00406159437	1830
3	5136	0.004062368776	1831
3	5139	0.00406458553	1832
3	5143	0.004068549483	1833
3	5146	0.004070864538	1834
3	5148	0.004070864538	1835
3	5150	0.004076921257	1836
3	5152	0.004076921257	1837
3	5155	0.004078119425	1838
3	5157	0.004078373877	1839
3	5159	0.004078373877	1840
3	5162	0.004080116661	1841
3	5164	0.00408177666	1842
3	5168	0.004085188994	1843
3	5170	0.004086734368	1844
3	5174	0.004094437363	1845
3	5177	0.004096392577	1846
3	5181	0.004098903848	1847
3	5183	0.004102164371	1848
3	5187	0.004108295839	1849
3	5190	0.004108426337	1850
3	5194	0.004109941606	1851
3	5197	0.004117507559	1852
3	5201	0.00411930871	1853
3	5203	0.004120743388	1854
3	5205	0.004120743388	1855
3	5207	0.004125910787	1856
3	5209	0.004125910787	1857
3	5212	0.004127481274	1858
3	5216	0.004129133539	1859
3	5219	0.004132679838	1860
3	5221	0.004132679838	1861
3	5223	0.004136944074	1862
3	5225	0.004136944074	1863
3	5228	0.004138792617	1864
3	5232	0.004143280722	1865
3	5234	0.004145181966	1866
3	5236	0.004145181966	1867
3	5239	0.004150061164	1868
3	5241	0.004152892965	1869
3	5244	0.004156801902	1870
3	5248	0.004158761983	1871
3	5251	0.004160332122	1872
3	5253	0.004160332122	1873
3	5256	0.004167354296	1874
3	5258	0.004170008958	1875
3	5260	0.004170008958	1876
3	5263	0.004173116864	1877
3	5267	0.004178765867	1878
3	5270	0.004179826309	1879
3	5274	0.004180250689	1880
3	5276	0.004184482761	1881
3	5278	0.004184482761	1882
3	5280	0.00418785047	1883
3	5282	0.00418785047	1884
3	5285	0.004188405026	1885
3	5288	0.00419711895	1886
3	5292	0.004197458854	1887
3	5295	0.004200168308	1888
3	5297	0.004200168308	1889
3	5300	0.004203693973	1890
3	5303	0.004207787991	1891
3	5307	0.004212080581	1892
3	5309	0.004215192135	1893
3	5311	0.004215192135	1894
3	5313	0.004217890483	1895
3	5317	0.004219266747	1896
3	5319	0.004221539331	1897
3	5323	0.004229069457	1898
3	5326	0.004230653396	1899
3	5328	0.004230653396	1900
3	5331	0.00423372762	1901
3	5333	0.004236463284	1902
3	5335	0.004236463284	1903
3	5338	0.004240848374	1904
3	5341	0.004243982286	1905
3	5345	0.004244933319	1906
3	5348	0.004248785777	1907
3	5350	0.004248785777	1908
3	5353	0.004249579769	1909
3	5356	0.00425234187	1910
3	5358	0.004254716937	1911
3	5361	0.004257859135	1912
3	5363	0.004257859135	1913
3	5366	0.004259384718	1914
3	5369	0.004261690464	1915
3	5371	0.004264081369	1916
3	5375	0.004270886991	1917
3	5378	0.004273685256	1918
3	5381	0.004277307357	1919
3	5383	0.004277307357	1920
3	5386	0.004279383887	1921
3	5389	0.004286982026	1922
3	5391	0.004287136172	1923
3	5393	0.004287136172	1924
3	5396	0.004292528047	1925
3	5399	0.00429301635	1926
3	5402	0.004299872447	1927
3	5406	0.004300027404	1928
3	5410	0.004305736795	1929
3	5412	0.004308480809	1930
3	5414	0.004308480809	1931
3	5417	0.004309314977	1932
3	5420	0.004312790035	1933
3	5422	0.00431500544	1934
3	5426	0.00431828509	1935
3	5428	0.004319039782	1936
3	5432	0.004321407411	1937
3	5434	0.004325183259	1938
3	5436	0.004325183259	1939
3	5438	0.004329478317	1940
3	5442	0.004331337602	1941
3	5445	0.004333064728	1942
3	5447	0.004333064728	1943
3	5450	0.004333826951	1944
3	5452	0.004340477436	1945
3	5456	0.004342370994	1946
3	5459	0.0043444228	1947
3	5461	0.0043444228	1948
3	5464	0.004345705358	1949
3	5467	0.004347333687	1950
3	5470	0.004351541316	1951
3	5473	0.004354805021	1952
3	5475	0.004354805021	1953
3	5478	0.004354967231	1954
3	5480	0.004362581286	1955
3	5484	0.004364288836	1956
3	5488	0.004367332995	1957
3	5490	0.004367353694	1958
3	5493	0.004370813841	1959
3	5497	0.004375196218	1960
3	5500	0.004379445703	1961
3	5502	0.004379445703	1962
3	5505	0.004381372218	1963
3	5509	0.004385553031	1964
3	5512	0.004389058989	1965
3	5516	0.004390959401	1966
3	5519	0.00439096623	1967
3	5521	0.00439096623	1968
3	5523	0.004394653539	1969
3	5525	0.004394653539	1970
3	5528	0.004396201121	1971
3	5530	0.004396693239	1972
3	5532	0.004396693239	1973
3	5534	0.004400145904	1974
3	5537	0.004402254521	1975
3	5541	0.004403756532	1976
3	5544	0.004406859095	1977
3	5548	0.004410378405	1978
3	5551	0.004411239492	1979
3	5553	0.004411239492	1980
3	5556	0.004414813159	1981
3	5559	0.004417356529	1982
3	5562	0.004419670289	1983
3	5566	0.004420065019	1984
3	5570	0.004426430216	1985
3	5573	0.004427423378	1986
3	5577	0.00442910612	1987
3	5580	0.004436561108	1988
3	5584	0.00443675345	1989
3	5587	0.004445231629	1990
3	5589	0.004446358348	1991
3	5593	0.004452781728	1992
3	5596	0.004452840799	1993
3	5598	0.004452840799	1994
3	5601	0.00445530479	1995
3	5604	0.004457526772	1996
3	5606	0.004458620733	1997
3	5608	0.004458620733	1998
3	5611	0.004463814169	1999
3	5614	0.004465086765	2000
3	5616	0.004466836757	2001
3	5618	0.004466836757	2002
3	5621	0.004468446847	2003
3	5623	0.004470067305	2004
3	5625	0.004470067305	2005
3	5627	0.004474119371	2006
3	5629	0.004474119371	2007
3	5632	0.004475739784	2008
3	5634	0.004477652301	2009
3	5636	0.004477652301	2010
3	5639	0.004479911448	2011
3	5641	0.004482636313	2012
3	5643	0.004482636313	2013
3	5646	0.00448778517	2014
3	5648	0.00448784984	2015
3	5650	0.00448784984	2016
3	5653	0.004488834764	2017
3	5657	0.00449015073	2018
3	5659	0.004490996934	2019
3	5661	0.004490996934	2020
3	5663	0.004495226688	2021
3	5665	0.004495226688	2022
3	5668	0.004499592865	2023
3	5670	0.004502865093	2024
3	5672	0.004502865093	2025
3	5675	0.004504276523	2026
3	5679	0.00450554293	2027
3	5682	0.004509534796	2028
3	5684	0.004511815922	2029
3	5688	0.004517925934	2030
3	5690	0.004518649563	2031
3	5694	0.004525397627	2032
3	5696	0.004526357298	2033
3	5698	0.004526357298	2034
3	5701	0.004527219063	2035
3	5703	0.00452873892	2036
3	5706	0.004534652428	2037
3	5708	0.004534652428	2038
3	5711	0.004536027291	2039
3	5714	0.004539491571	2040
3	5716	0.004539491571	2041
3	5718	0.004541200792	2042
3	5722	0.004541390791	2043
3	5725	0.004547692676	2044
3	5729	0.004550006715	2045
3	5731	0.004550521822	2046
3	5733	0.004550521822	2047
3	5735	0.004553210331	2048
3	5738	0.004557612119	2049
3	5742	0.00455890528	2050
3	5746	0.004561354171	2051
3	5748	0.004562842276	2052
3	5752	0.004563511518	2053
3	5756	0.004564763116	2054
3	5759	0.004568204065	2055
3	5761	0.00456865465	2056
3	5765	0.004569950304	2057
3	5767	0.004574681358	2058
3	5771	0.004575089086	2059
3	5774	0.004579866109	2060
3	5777	0.004580282186	2061
3	5779	0.004580282186	2062
3	5782	0.004585847163	2063
3	5784	0.004589790864	2064
3	5786	0.004589790864	2065
3	5789	0.004590267474	2066
3	5793	0.00459165691	2067
3	5796	0.004593747114	2068
3	5798	0.004598825268	2069
3	5800	0.004598825268	2070
3	5803	0.004600779264	2071
3	5805	0.004602932697	2072
3	5808	0.004605559996	2073
3	5812	0.004608298243	2074
3	5815	0.004613286127	2075
3	5817	0.004614221907	2076
3	5819	0.004614221907	2077
3	5821	0.004617926922	2078
3	5825	0.004619990553	2079
3	5827	0.004620315422	2080
3	5829	0.004620315422	2081
3	5832	0.00462578002	2082
3	5835	0.00462802183	2083
3	5837	0.004628126917	2084
3	5839	0.004628126917	2085
3	5842	0.004630969242	2086
3	5844	0.00463515159	2087
3	5848	0.004636753694	2088
3	5851	0.004640305713	2089
3	5853	0.00464092368	2090
3	5855	0.00464092368	2091
3	5857	0.00464364133	2092
3	5859	0.00464364133	2093
3	5862	0.004643835324	2094
3	5865	0.004648990078	2095
3	5869	0.004651777629	2096
3	5871	0.004651850453	2097
3	5873	0.004651850453	2098
3	5875	0.004654221173	2099
3	5879	0.00465477899	2100
3	5881	0.004656941993	2101
3	5885	0.004661595877	2102
3	5888	0.004663170955	2103
3	5890	0.004663170955	2104
3	5893	0.004665484945	2105
3	5895	0.004671045712	2106
3	5899	0.004671698121	2107
3	5901	0.004673129199	2108
3	5903	0.004673129199	2109
3	5905	0.004675731792	2110
3	5907	0.004675731792	2111
3	5910	0.004677071674	2112
3	5913	0.004682187339	2113
3	5917	0.004683610485	2114
3	5921	0.004685646726	2115
3	5924	0.004686737762	2116
3	5928	0.004693179769	2117
3	5930	0.004696585364	2118
3	5932	0.004696585364	2119
3	5935	0.004697513137	2120
3	5937	0.004700791643	2121
3	5939	0.004700791643	2122
3	5942	0.004703721236	2123
3	5945	0.004706528537	2124
3	5947	0.004706528537	2125
3	5950	0.004707732952	2126
3	5952	0.004713830371	2127
3	5956	0.004715903297	2128
3	5959	0.004717665592	2129
3	5961	0.004717665592	2130
3	5964	0.004719281135	2131
3	5967	0.004719472374	2132
3	5969	0.004719472374	2133
3	5972	0.004722929961	2134
3	5974	0.00472412671	2135
3	5978	0.004729017701	2136
3	5981	0.004733625048	2137
3	5983	0.004733625048	2138
3	5986	0.004734272569	2139
3	5989	0.004735346908	2140
3	5993	0.004738852137	2141
3	5995	0.004739639937	2142
3	5997	0.004739639937	2143
3	6000	0.004741810277	2144
3	6003	0.004747902499	2145
3	6005	0.004747902499	2146
3	6008	0.004748085748	2147
3	6011	0.004753709903	2148
3	6015	0.004757222562	2149
3	6018	0.004757821616	2150
3	6020	0.004757821616	2151
3	6022	0.004759750895	2152
3	6026	0.00476238179	2153
3	6028	0.004762949888	2154
3	6031	0.004766585834	2155
3	6034	0.004770148081	2156
3	6036	0.004770148081	2157
3	6039	0.004771389649	2158
3	6041	0.004772100567	2159
3	6044	0.004775139573	2160
3	6048	0.004778824041	2161
3	6051	0.004783272569	2162
3	6053	0.004783272569	2163
3	6056	0.004785289215	2164
3	6059	0.004790442183	2165
3	6063	0.004793981024	2166
3	6066	0.004796014582	2167
3	6070	0.004796017356	2168
3	6074	0.004798360479	2169
3	6077	0.004804183192	2170
3	6079	0.004804183192	2171
3	6082	0.004806967621	2172
3	6084	0.004809165112	2173
3	6086	0.004809165112	2174
3	6088	0.004810336801	2175
3	6091	0.004811465943	2176
3	6095	0.004812061759	2177
3	6098	0.004820398657	2178
3	6102	0.004820416996	2179
3	6106	0.004828739231	2180
3	6108	0.004828872915	2181
3	6110	0.004828872915	2182
3	6113	0.00482988466	2183
3	6116	0.00483645455	2184
3	6120	0.004836725648	2185
3	6123	0.004844427785	2186
3	6125	0.004844427785	2187
3	6128	0.004846600176	2188
3	6130	0.004852309482	2189
3	6134	0.00485325947	2190
3	6137	0.004856995223	2191
3	6141	0.004859353494	2192
3	6145	0.004866134563	2193
3	6147	0.004866578579	2194
3	6149	0.004866578579	2195
3	6152	0.004872393187	2196
3	6154	0.00487269266	2197
3	6158	0.004876099729	2198
3	6160	0.004877145618	2199
3	6164	0.004885775912	2200
3	6167	0.004886108925	2201
3	6169	0.004886108925	2202
3	6172	0.004886872912	2203
3	6175	0.004887378156	2204
3	6177	0.004887378156	2205
3	6180	0.004890685977	2206
3	6183	0.004892604257	2207
3	6186	0.004897042024	2208
3	6188	0.004897042024	2209
3	6191	0.004897554093	2210
3	6194	0.00490090288	2211
3	6198	0.004902259118	2212
3	6200	0.004903695933	2213
3	6204	0.004909345582	2214
3	6207	0.00491176153	2215
3	6211	0.004914121849	2216
3	6214	0.004915595782	2217
3	6217	0.004919848728	2218
3	6219	0.004919848728	2219
3	6222	0.00492373304	2220
3	6224	0.004924012188	2221
3	6226	0.004924012188	2222
3	6228	0.004926057725	2223
3	6232	0.004928232696	2224
3	6234	0.004933118851	2225
3	6236	0.004933118851	2226
3	6239	0.004933674941	2227
3	6242	0.004935896177	2228
3	6245	0.004936741105	2229
3	6247	0.004936741105	2230
3	6250	0.004938726387	2231
3	6254	0.004942903715	2232
3	6257	0.004945221043	2233
3	6260	0.00495042502	2234
3	6264	0.004951485857	2235
3	6267	0.00495639755	2236
3	6269	0.004957569818	2237
3	6273	0.004959303358	2238
3	6276	0.004965553444	2239
3	6278	0.004965553444	2240
3	6281	0.004966323286	2241
3	6283	0.004972539179	2242
3	6285	0.004972539179	2243
3	6288	0.004976167976	2244
3	6292	0.004979790407	2245
3	6295	0.004982384409	2246
3	6299	0.004986967027	2247
3	6302	0.004989445003	2248
3	6304	0.004989445003	2249
3	6307	0.00499287971	2250
3	6311	0.004994538486	2251
3	6314	0.004995037586	2252
3	6316	0.004995037586	2253
3	6319	0.004998415021	2254
3	6322	0.005001374103	2255
3	6326	0.005003947401	2256
3	6328	0.005006777132	2257
3	6332	0.005010653004	2258
3	6336	0.005013021477	2259
3	6338	0.00501500904	2260
3	6340	0.00501500904	2261
3	6343	0.005015519807	2262
3	6347	0.005018119256	2263
3	6350	0.005018634294	2264
3	6354	0.005020734153	2265
3	6357	0.005021297265	2266
3	6359	0.005021297265	2267
3	6362	0.0050240199	2268
3	6366	0.00502641241	2269
3	6370	0.005028463673	2270
3	6372	0.005030815005	2271
3	6375	0.00503266539	2272
3	6377	0.00503266539	2273
3	6380	0.005034620635	2274
3	6383	0.005034655669	2275
3	6385	0.005034655669	2276
3	6388	0.005041436264	2277
3	6390	0.005042604095	2278
3	6394	0.005050576629	2279
3	6396	0.005052590091	2280
3	6399	0.005059354751	2281
3	6401	0.005059354751	2282
3	6404	0.005060576305	2283
3	6407	0.00506451057	2284
3	6410	0.005066718415	2285
3	6412	0.005066718415	2286
3	6415	0.005069305054	2287
3	6417	0.005071037263	2288
3	6419	0.005071037263	2289
3	6421	0.005072929734	2290
3	6423	0.005072929734	2291
3	6426	0.005078443641	2292
3	6429	0.005079274205	2293
3	6433	0.005082280357	2294
3	6437	0.005085662262	2295
3	6439	0.005085701548	2296
3	6442	0.005088984014	2297
3	6446	0.005091255868	2298
3	6449	0.005093471859	2299
3	6452	0.005097901516	2300
3	6454	0.005097901516	2301
3	6457	0.005097947104	2302
3	6460	0.005101621569	2303
3	6463	0.005105314067	2304
3	6465	0.005105314067	2305
3	6468	0.005105887419	2306
3	6471	0.005111182123	2307
3	6473	0.005111182123	2308
3	6476	0.005115790266	2309
3	6478	0.005120118564	2310
3	6480	0.005120118564	2311
3	6483	0.00512464656	2312
3	6485	0.005125750194	2313
3	6489	0.005133651793	2314
3	6491	0.005134454509	2315
3	6493	0.005134454509	2316
3	6496	0.005139040419	2317
3	6499	0.005141666411	2318
3	6503	0.005142950034	2319
3	6505	0.005145417669	2320
3	6507	0.005145417669	2321
3	6510	0.005152817419	2322
3	6513	0.00515302435	2323
3	6516	0.005157933319	2324
3	6520	0.00515873321	2325
3	6523	0.005161409942	2326
3	6525	0.005162600535	2327
3	6527	0.005162600535	2328
3	6529	0.005165999077	2329
3	6533	0.005168920305	2330
3	6536	0.005172598573	2331
3	6539	0.005175687528	2332
3	6543	0.005179458796	2333
3	6546	0.00518557046	2334
3	6548	0.00518557046	2335
3	6551	0.005187417965	2336
3	6553	0.005189588191	2337
3	6555	0.005189588191	2338
3	6558	0.005192833531	2339
3	6560	0.005195552321	2340
3	6563	0.005201028589	2341
3	6565	0.005201028589	2342
3	6568	0.005202136861	2343
3	6570	0.00520533245	2344
3	6572	0.00520533245	2345
3	6575	0.005210276195	2346
3	6578	0.005213237566	2347
3	6580	0.005213237566	2348
3	6583	0.005215126928	2349
3	6586	0.005219261374	2350
3	6590	0.005219334086	2351
3	6594	0.005222114935	2352
3	6597	0.005223530191	2353
3	6599	0.005226938535	2354
3	6602	0.005230717298	2355
3	6604	0.005230717298	2356
3	6606	0.005233202198	2357
3	6608	0.005233202198	2358
3	6611	0.005233529732	2359
3	6614	0.005240843286	2360
3	6617	0.005241091367	2361
3	6620	0.005248665472	2362
3	6624	0.005249580943	2363
3	6626	0.005251202847	2364
3	6628	0.005251202847	2365
3	6630	0.005256733203	2366
3	6632	0.005256733203	2367
3	6635	0.005256796825	2368
3	6639	0.005258081637	2369
3	6642	0.00526257894	2370
3	6645	0.005264367086	2371
3	6648	0.005266459814	2372
3	6650	0.005266459814	2373
3	6652	0.005267562343	2374
3	6654	0.005267562343	2375
3	6656	0.005272837884	2376
3	6658	0.005272837884	2377
3	6661	0.005273916314	2378
3	6664	0.005275542598	2379
3	6667	0.005278350945	2380
3	6669	0.005278350945	2381
3	6672	0.005278463246	2382
3	6675	0.005281252536	2383
3	6677	0.005281822544	2384
3	6681	0.005283998919	2385
3	6684	0.005287194359	2386
3	6687	0.005288226069	2387
3	6691	0.005293516665	2388
3	6694	0.005295567342	2389
3	6697	0.005296435447	2390
3	6700	0.005299172884	2391
3	6702	0.005299172884	2392
3	6705	0.005301773406	2393
3	6707	0.005302571035	2394
3	6709	0.005302571035	2395
3	6711	0.005304180751	2396
3	6714	0.005306332327	2397
3	6716	0.005306332327	2398
3	6719	0.005306370993	2399
3	6723	0.005310537071	2400
3	6726	0.005315814248	2401
3	6728	0.005315814248	2402
3	6731	0.005316721762	2403
3	6734	0.005317608142	2404
3	6736	0.005317608142	2405
3	6739	0.005324179134	2406
3	6742	0.005325824769	2407
3	6744	0.005325824769	2408
3	6747	0.005329120946	2409
3	6750	0.00533310829	2410
3	6752	0.005335105276	2411
3	6756	0.005338232759	2412
3	6759	0.005343218339	2413
3	6761	0.005343218339	2414
3	6763	0.005345174156	2415
3	6767	0.005345507707	2416
3	6770	0.00535077373	2417
3	6773	0.005352042419	2418
3	6775	0.005352042419	2419
3	6778	0.00535415054	2420
3	6781	0.005355272587	2421
3	6784	0.005357477577	2422
3	6788	0.005360379697	2423
3	6791	0.005363676621	2424
3	6795	0.00536693562	2425
3	6798	0.005373241315	2426
3	6800	0.005373241315	2427
3	6802	0.005375575548	2428
3	6806	0.005376636825	2429
3	6809	0.00537664584	2430
3	6813	0.005379913439	2431
3	6815	0.005382727665	2432
3	6817	0.005382727665	2433
3	6819	0.005387728108	2434
3	6821	0.005387728108	2435
3	6824	0.005388530253	2436
3	6827	0.005389911744	2437
3	6830	0.005390300925	2438
3	6834	0.005396054169	2439
3	6836	0.005397238184	2440
3	6838	0.005397238184	2441
3	6841	0.005399848739	2442
3	6844	0.00540414624	2443
3	6846	0.005405074011	2444
3	6849	0.005407698246	2445
3	6853	0.005412436275	2446
3	6855	0.005415942292	2447
3	6858	0.005419583902	2448
3	6862	0.005422271367	2449
3	6865	0.005426216234	2450
3	6867	0.005426216234	2451
3	6870	0.005431902022	2452
3	6873	0.005433786166	2453
3	6875	0.005435093771	2454
3	6879	0.005441790238	2455
3	6881	0.005443902956	2456
3	6883	0.005443902956	2457
3	6885	0.005445956434	2458
3	6889	0.005446377437	2459
3	6891	0.005447679083	2460
3	6895	0.005451954026	2461
3	6898	0.005454109535	2462
3	6902	0.005455983782	2463
3	6905	0.005457140348	2464
3	6907	0.005457140348	2465
3	6910	0.005458196937	2466
3	6913	0.005461117233	2467
3	6917	0.005466402314	2468
3	6920	0.005467163576	2469
3	6924	0.00546824526	2470
3	6927	0.005475556954	2471
3	6929	0.005475556954	2472
3	6932	0.005476602839	2473
3	6934	0.005477592651	2474
3	6936	0.005477592651	2475
3	6939	0.005482477536	2476
3	6941	0.00548540404	2477
3	6945	0.005489677628	2478
3	6948	0.005490445321	2479
3	6950	0.005490445321	2480
3	6953	0.005495210904	2481
3	6955	0.005498308178	2482
3	6957	0.005498308178	2483
3	6960	0.005501254267	2484
3	6962	0.005504332926	2485
3	6964	0.005504332926	2486
3	6967	0.005504839903	2487
3	6969	0.005505420115	2488
3	6972	0.005513653981	2489
3	6976	0.005514315087	2490
3	6980	0.005517930428	2491
3	6983	0.005521975886	2492
3	6987	0.005524596993	2493
3	6989	0.005531745738	2494
3	6993	0.005532944707	2495
3	6996	0.005534472369	2496
3	6999	0.005536281729	2497
3	7001	0.005537280508	2498
3	7003	0.005537280508	2499
3	7006	0.005538313962	2500
3	7009	0.005541904873	2501
3	7011	0.005541904873	2502
3	7014	0.005543179161	2503
3	7017	0.00554868599	2504
3	7020	0.005549818999	2505
3	7022	0.005549818999	2506
3	7025	0.005550844687	2507
3	7027	0.005553519286	2508
3	7029	0.005553519286	2509
3	7032	0.005555118012	2510
3	7035	0.005560796946	2511
3	7037	0.005560796946	2512
3	7040	0.005564869591	2513
3	7044	0.005567472358	2514
3	7046	0.00557002837	2515
3	7049	0.005571547841	2516
3	7051	0.005571547841	2517
3	7054	0.005575759139	2518
3	7056	0.005578764692	2519
3	7058	0.005578764692	2520
3	7061	0.005580418312	2521
3	7063	0.005581109078	2522
3	7065	0.005581109078	2523
3	7067	0.005582647695	2524
3	7069	0.005582647695	2525
3	7072	0.00558760347	2526
3	7074	0.005591512624	2527
3	7076	0.005591512624	2528
3	7079	0.005593804244	2529
3	7082	0.00559666674	2530
3	7086	0.005597290666	2531
3	7088	0.005598181608	2532
3	7090	0.005598181608	2533
3	7092	0.005601484668	2534
3	7094	0.005601484668	2535
3	7097	0.005602594607	2536
3	7099	0.005607026484	2537
3	7101	0.005607026484	2538
3	7104	0.005608866178	2539
3	7106	0.005614628618	2540
3	7108	0.005614628618	2541
3	7111	0.005617914311	2542
3	7113	0.005619279323	2543
3	7116	0.005624007312	2544
3	7120	0.005624219038	2545
3	7123	0.005628535044	2546
3	7127	0.005631845385	2547
3	7129	0.005638235174	2548
3	7133	0.005639896955	2549
3	7136	0.005641808471	2550
3	7139	0.005643128439	2551
3	7143	0.005644598992	2552
3	7145	0.005644927261	2553
3	7147	0.005644927261	2554
3	7149	0.00564820318	2555
3	7153	0.005649889924	2556
3	7156	0.005651242059	2557
3	7158	0.005657642864	2558
3	7160	0.005657642864	2559
3	7163	0.005659780368	2560
3	7167	0.005664808859	2561
3	7169	0.005666397603	2562
3	7172	0.005669967502	2563
3	7174	0.005669967502	2564
3	7176	0.005671658868	2565
3	7178	0.005671658868	2566
3	7181	0.005673360122	2567
3	7184	0.005677873026	2568
3	7187	0.005679246603	2569
3	7191	0.005682670192	2570
3	7195	0.005684589835	2571
3	7198	0.005687390364	2572
3	7200	0.005687390364	2573
3	7202	0.005689695135	2574
3	7206	0.005692809526	2575
3	7209	0.00569692909	2576
3	7211	0.00569692909	2577
3	7214	0.005699543213	2578
3	7216	0.005699858326	2579
3	7218	0.005699858326	2580
3	7221	0.005704970145	2581
3	7224	0.005709644021	2582
3	7226	0.005709839048	2583
3	7228	0.005709839048	2584
3	7230	0.005711297181	2585
3	7233	0.005713752852	2586
3	7235	0.005713752852	2587
3	7238	0.005715777951	2588
3	7241	0.005718936673	2589
3	7243	0.005721501618	2590
3	7245	0.005721501618	2591
3	7247	0.005724129173	2592
3	7249	0.005724129173	2593
3	7252	0.005724649133	2594
3	7254	0.005728071219	2595
3	7257	0.005731955199	2596
3	7261	0.005733076673	2597
3	7264	0.005737045199	2598
3	7266	0.005739774807	2599
3	7268	0.005739774807	2600
3	7271	0.005743152167	2601
3	7274	0.005748276677	2602
3	7276	0.005749582481	2603
3	7279	0.00575205852	2604
3	7282	0.005756114044	2605
3	7284	0.005756114044	2606
3	7287	0.005757679765	2607
3	7289	0.005764595777	2608
3	7293	0.005767350135	2609
3	7296	0.005769258472	2610
3	7300	0.005771378618	2611
3	7302	0.005771632167	2612
3	7304	0.005771632167	2613
3	7306	0.005774091705	2614
3	7308	0.005774091705	2615
3	7311	0.005775878618	2616
3	7314	0.005780244054	2617
3	7318	0.005785329302	2618
3	7321	0.005788378132	2619
3	7325	0.005794059014	2620
3	7328	0.005796990436	2621
3	7330	0.005796990436	2622
3	7332	0.005800117783	2623
3	7334	0.005800117783	2624
3	7337	0.00580024156	2625
3	7340	0.005803310005	2626
3	7344	0.005804782026	2627
3	7347	0.005808595497	2628
3	7349	0.005810662029	2629
3	7351	0.005810662029	2630
3	7354	0.0058154136	2631
3	7357	0.005817251204	2632
3	7360	0.005817944815	2633
3	7364	0.005821771149	2634
3	7368	0.005826309847	2635
3	7371	0.005826489393	2636
3	7375	0.005832337094	2637
3	7377	0.005834302472	2638
3	7379	0.005834302472	2639
3	7381	0.005836365893	2640
3	7385	0.005838698115	2641
3	7388	0.005838923543	2642
3	7391	0.005843822926	2643
3	7395	0.005843956848	2644
3	7397	0.005847287478	2645
3	7399	0.005847287478	2646
3	7402	0.005847437836	2647
3	7404	0.005853160693	2648
3	7408	0.005854890612	2649
3	7410	0.005858459802	2650
3	7412	0.005858459802	2651
3	7415	0.005860986969	2652
3	7418	0.005864816819	2653
3	7420	0.005864816819	2654
3	7423	0.005865160334	2655
3	7426	0.005870485123	2656
3	7430	0.005874518116	2657
3	7432	0.005877457904	2658
3	7434	0.005877457904	2659
3	7436	0.005880464918	2660
3	7440	0.005884076154	2661
3	7443	0.00588688173	2662
3	7447	0.005888918635	2663
3	7449	0.005895039756	2664
3	7451	0.005895039756	2665
3	7453	0.005896162952	2666
3	7455	0.005896162952	2667
3	7458	0.00589788254	2668
3	7460	0.005898344192	2669
3	7462	0.005898344192	2670
3	7465	0.005904099753	2671
3	7467	0.005905920679	2672
3	7469	0.005905920679	2673
3	7471	0.005907252264	2674
3	7475	0.005911050092	2675
3	7478	0.005912001882	2676
3	7480	0.005912001882	2677
3	7483	0.005913229281	2678
3	7486	0.005916311422	2679
3	7488	0.005916311422	2680
3	7490	0.005917631268	2681
3	7492	0.005917631268	2682
3	7495	0.005920785019	2683
3	7499	0.005924283143	2684
3	7502	0.005925216337	2685
3	7506	0.005925950343	2686
3	7509	0.005927730346	2687
3	7513	0.005928750253	2688
3	7516	0.005931078662	2689
3	7520	0.00593337132	2690
3	7523	0.005939164945	2691
3	7525	0.005939164945	2692
3	7527	0.005941650918	2693
3	7531	0.005942536959	2694
3	7534	0.005943435439	2695
3	7537	0.005946795765	2696
3	7539	0.005946795765	2697
3	7541	0.005947920291	2698
3	7543	0.005947920291	2699
3	7546	0.005948499651	2700
3	7548	0.005950760492	2701
3	7552	0.005956226087	2702
3	7554	0.00595731074	2703
3	7557	0.005963588034	2704
3	7559	0.005963588034	2705
3	7562	0.005965661729	2706
3	7564	0.005971360457	2707
3	7568	0.005974224178	2708
3	7571	0.005976113162	2709
3	7573	0.005976113162	2710
3	7575	0.005979751848	2711
3	7577	0.005979751848	2712
3	7580	0.005982977416	2713
3	7584	0.005985774472	2714
3	7586	0.005987686698	2715
3	7590	0.005989054476	2716
3	7593	0.005990855567	2717
3	7596	0.005997415897	2718
3	7598	0.005997415897	2719
3	7601	0.006000457605	2720
3	7603	0.006006573254	2721
3	7607	0.006009952386	2722
3	7609	0.00601238961	2723
3	7613	0.006014934128	2724
3	7615	0.006018144762	2725
3	7617	0.006018144762	2726
3	7620	0.006021585383	2727
3	7623	0.006024917588	2728
3	7625	0.006024917588	2729
3	7628	0.006028421106	2730
3	7632	0.006029436746	2731
3	7634	0.006029991031	2732
3	7636	0.006029991031	2733
3	7638	0.006031541808	2734
3	7640	0.006031541808	2735
3	7643	0.006036420893	2736
3	7645	0.006038834529	2737
3	7647	0.006038834529	2738
3	7650	0.006045702995	2739
3	7652	0.006048624929	2740
3	7654	0.006048624929	2741
3	7657	0.006054687783	2742
3	7660	0.006057722543	2743
3	7662	0.006057722543	2744
3	7665	0.006058255807	2745
3	7668	0.006062419393	2746
3	7671	0.006063659883	2747
3	7674	0.006067276728	2748
3	7678	0.006067819547	2749
3	7681	0.006069700816	2750
3	7683	0.006070459964	2751
3	7685	0.006070459964	2752
3	7687	0.006077027731	2753
3	7690	0.006079147163	2754
3	7692	0.006079147163	2755
3	7695	0.006079331981	2756
3	7697	0.006087062413	2757
3	7699	0.006087062413	2758
3	7702	0.006088002043	2759
3	7704	0.006094199991	2760
3	7706	0.006094199991	2761
3	7709	0.006096657648	2762
3	7712	0.006099261259	2763
3	7714	0.006099261259	2764
3	7717	0.006103882638	2765
3	7720	0.006104615221	2766
3	7722	0.006104615221	2767
3	7724	0.006107756098	2768
3	7726	0.006107756098	2769
3	7729	0.006110074466	2770
3	7731	0.006111812933	2771
3	7734	0.006113707021	2772
3	7736	0.006113707021	2773
3	7739	0.006119053012	2774
3	7742	0.006122512283	2775
3	7744	0.006123599	2776
3	7746	0.006123599	2777
3	7748	0.006128129598	2778
3	7752	0.006129734081	2779
3	7756	0.00613149147	2780
3	7760	0.006134883431	2781
3	7763	0.006136785097	2782
3	7766	0.006137198199	2783
3	7769	0.006141216365	2784
3	7771	0.006141216365	2785
3	7774	0.006145278394	2786
3	7776	0.006150916503	2787
3	7778	0.006150916503	2788
3	7781	0.006153995952	2789
3	7783	0.006154763522	2790
3	7785	0.006154763522	2791
3	7788	0.006156475345	2792
3	7792	0.006162383171	2793
3	7794	0.006164643123	2794
3	7796	0.006164643123	2795
3	7799	0.00616798943	2796
3	7801	0.006168148394	2797
3	7803	0.006168148394	2798
3	7805	0.00617492205	2799
3	7807	0.00617492205	2800
3	7810	0.006177413961	2801
3	7812	0.006179707873	2802
3	7814	0.006179707873	2803
3	7816	0.006183461563	2804
3	7820	0.00618369837	2805
3	7823	0.006186733248	2806
3	7825	0.006187680722	2807
3	7827	0.006187680722	2808
3	7830	0.006190528123	2809
3	7832	0.006195236911	2810
3	7836	0.006198415504	2811
3	7838	0.006204822152	2812
3	7841	0.00620650439	2813
3	7843	0.00620650439	2814
3	7846	0.006206598602	2815
3	7848	0.00621033694	2816
3	7852	0.006210954928	2817
3	7855	0.006217238189	2818
3	7859	0.006217798352	2819
3	7861	0.006219395056	2820
3	7865	0.006221985606	2821
3	7867	0.006226925677	2822
3	7869	0.006226925677	2823
3	7872	0.006230281873	2824
3	7874	0.006233968247	2825
3	7877	0.00623628963	2826
3	7881	0.006237341223	2827
3	7884	0.006242294698	2828
3	7886	0.006245030922	2829
3	7888	0.006245030922	2830
3	7891	0.006245654305	2831
3	7894	0.006246765447	2832
3	7898	0.006247472638	2833
3	7901	0.006251970962	2834
3	7903	0.006251970962	2835
3	7906	0.006253321405	2836
3	7909	0.00625878518	2837
3	7911	0.006261076784	2838
3	7915	0.006264034545	2839
3	7918	0.006264585907	2840
3	7921	0.00626951987	2841
3	7923	0.00626951987	2842
3	7926	0.006269714003	2843
3	7930	0.006273461506	2844
3	7934	0.006276135354	2845
3	7937	0.00627898411	2846
3	7939	0.00627898411	2847
3	7942	0.006283853952	2848
3	7945	0.006284591396	2849
3	7947	0.006284591396	2850
3	7950	0.006287657137	2851
3	7953	0.006287744946	2852
3	7956	0.006291944005	2853
3	7960	0.006292118805	2854
3	7964	0.006299106602	2855
3	7967	0.006301176254	2856
3	7971	0.006301746381	2857
3	7973	0.006305239831	2858
3	7975	0.006305239831	2859
3	7977	0.006307063597	2860
3	7981	0.006309022718	2861
3	7983	0.006311182609	2862
3	7986	0.006317276823	2863
3	7988	0.006317276823	2864
3	7991	0.006317613191	2865
3	7995	0.00632637297	2866
3	7998	0.006326677115	2867
3	8000	0.006326677115	2868
3	8003	0.006331425584	2869
3	8005	0.006334640214	2870
3	8009	0.006334961365	2871
3	8011	0.006338230393	2872
3	8013	0.006338230393	2873
3	8016	0.00634262434	2874
3	8018	0.006347213333	2875
3	8022	0.006347283139	2876
3	8024	0.00635110628	2877
3	8028	0.006352807309	2878
3	8031	0.006354137377	2879
3	8033	0.006354137377	2880
3	8036	0.006358743839	2881
3	8039	0.006362647863	2882
3	8041	0.006362647863	2883
3	8043	0.006366358553	2884
3	8045	0.006366358553	2885
3	8048	0.006368371161	2886
3	8051	0.006373902471	2887
3	8054	0.006374050995	2888
3	8058	0.006379253833	2889
3	8061	0.006383397177	2890
3	8063	0.006383397177	2891
3	8066	0.006388916694	2892
3	8069	0.006389132141	2893
3	8071	0.006389132141	2894
3	8073	0.006394318847	2895
3	8077	0.006396777358	2896
3	8079	0.006403748994	2897
3	8081	0.006403748994	2898
3	8084	0.006406090225	2899
3	8087	0.006409283991	2900
3	8091	0.006410837234	2901
3	8093	0.006411054984	2902
3	8095	0.006411054984	2903
3	8098	0.006415681195	2904
3	8102	0.006417873974	2905
3	8104	0.006420391001	2906
3	8108	0.006420852976	2907
3	8111	0.006428643896	2908
3	8114	0.006429833683	2909
3	8116	0.006429833683	2910
3	8119	0.006431731122	2911
3	8122	0.006438046328	2912
3	8125	0.006439073566	2913
3	8127	0.006439073566	2914
3	8130	0.006439207295	2915
3	8133	0.006441748401	2916
3	8135	0.006441748401	2917
3	8137	0.006446912459	2918
3	8141	0.006448993107	2919
3	8144	0.006452552402	2920
3	8148	0.006454866303	2921
3	8150	0.006460951153	2922
3	8152	0.006460951153	2923
3	8155	0.006464608838	2924
3	8158	0.006465954501	2925
3	8160	0.006465954501	2926
3	8163	0.006473794859	2927
3	8165	0.006475430066	2928
3	8169	0.006481654954	2929
3	8172	0.006481861967	2930
3	8175	0.006485136137	2931
3	8177	0.006485136137	2932
3	8179	0.006487526994	2933
3	8183	0.006487957067	2934
3	8185	0.006490205392	2935
3	8187	0.006490205392	2936
3	8189	0.006495943618	2937
3	8193	0.006496480748	2938
3	8197	0.006500954233	2939
3	8199	0.006502039058	2940
3	8202	0.006506136841	2941
3	8204	0.006506136841	2942
3	8207	0.006508311579	2943
3	8210	0.006510157691	2944
3	8212	0.006510157691	2945
3	8215	0.006511466892	2946
3	8217	0.006512100661	2947
3	8221	0.006514193008	2948
3	8224	0.006514832684	2949
3	8226	0.006514832684	2950
3	8228	0.006519717239	2951
3	8232	0.00652241174	2952
3	8234	0.006523995522	2953
3	8236	0.006523995522	2954
3	8239	0.006525461162	2955
3	8242	0.006531528377	2956
3	8245	0.006532244641	2957
3	8248	0.006534517368	2958
3	8250	0.006534517368	2959
3	8253	0.006536487468	2960
3	8255	0.006537037584	2961
3	8258	0.006538335882	2962
3	8262	0.006540810478	2963
3	8264	0.006542260631	2964
3	8266	0.006542260631	2965
3	8268	0.006545422991	2966
3	8270	0.006545422991	2967
3	8273	0.006549170032	2968
3	8276	0.006550415078	2969
3	8278	0.006550415078	2970
3	8280	0.0065564617	2971
3	8282	0.0065564617	2972
3	8285	0.006558388387	2973
3	8288	0.006561051565	2974
3	8290	0.006562335962	2975
3	8292	0.006562335962	2976
3	8294	0.006564206896	2977
3	8296	0.006564206896	2978
3	8298	0.006566512036	2979
3	8302	0.006569503568	2980
3	8306	0.006572754478	2981
3	8309	0.006575372895	2982
3	8311	0.006575372895	2983
3	8313	0.006579075789	2984
3	8317	0.006580813651	2985
3	8321	0.006582708862	2986
3	8324	0.006587821752	2987
3	8328	0.006592445261	2988
3	8331	0.006593738168	2989
3	8333	0.006594347758	2990
3	8336	0.006601627431	2991
3	8338	0.006601627431	2992
3	8341	0.006602627893	2993
3	8343	0.006604347794	2994
3	8347	0.006605014199	2995
3	8351	0.006606677019	2996
3	8353	0.006611181067	2997
3	8357	0.006612779087	2998
3	8359	0.006619161331	2999
3	8361	0.006619161331	3000
3	8364	0.006619273246	3001
3	8367	0.006623194063	3002
3	8371	0.00662395273	3003
3	8374	0.006629197955	3004
3	8376	0.006629197955	3005
3	8379	0.00663371661	3006
3	8381	0.006636189639	3007
3	8384	0.00663843307	3008
3	8388	0.00664334396	3009
3	8391	0.006643589376	3010
[...]
3	125898	0.098551951878	45023
3	125901	0.09855345468	45024
3	125905	0.098556582596	45025
3	125907	0.09855988617	45026
3	125909	0.09855988617	45027
3	125912	0.098563841455	45028
3	125915	0.098565399371	45029
3	125918	0.098570246522	45030
3	125922	0.098571431469	45031
3	125925	0.098573178888	45032
3	125928	0.098574712357	45033
3	125930	0.098574712357	45034
3	125932	0.098581110932	45035
3	125934	0.098581110932	45036
3	125937	0.098581125615	45037
3	125941	0.098584152661	45038
3	125944	0.098586285829	45039
3	125946	0.098587274751	45040
3	125950	0.09858917348	45041
3	125954	0.098591376288	45042
3	125956	0.098593272664	45043
3	125958	0.098593272664	45044
3	125961	0.098598246286	45045
3	125964	0.098600671024	45046
3	125968	0.098606206814	45047
3	125970	0.098607196209	45048
3	125972	0.098607196209	45049
3	125974	0.098613740308	45050
3	125976	0.098613740308	45051
3	125979	0.098613980203	45052
3	125982	0.098617522789	45053
3	125984	0.098618108473	45054
3	125986	0.098618108473	45055
3	125989	0.098623935673	45056
3	125992	0.098626939867	45057
3	125994	0.098626939867	45058
3	125996	0.09863062545	45059
3	125998	0.09863062545	45060
3	126001	0.098631552711	45061
3	126005	0.098634651864	45062
3	126009	0.098636874274	45063
3	126012	0.098640014004	45064
3	126016	0.098640047781	45065
3	126018	0.098646735465	45066
3	126022	0.098648859166	45067
3	126025	0.098654908875	45068
3	126029	0.098658069741	45069
3	126031	0.098659622957	45070
3	126035	0.098662587474	45071
3	126037	0.098668636184	45072
3	126039	0.098668636184	45073
3	126042	0.098672210373	45074
3	126044	0.098678424714	45075
3	126048	0.09868036664	45076
3	126050	0.098683990535	45077
3	126052	0.098683990535	45078
3	126054	0.098685238937	45079
3	126056	0.098685238937	45080
3	126059	0.098685913467	45081
3	126062	0.098687423383	45082
3	126065	0.098689997579	45083
3	126069	0.098691769932	45084
3	126072	0.098694391482	45085
3	126074	0.098694391482	45086
3	126076	0.098695796377	45087
3	126080	0.098701080004	45088
3	126083	0.098703271309	45089
3	126085	0.098703271309	45090
3	126087	0.098708245632	45091
3	126091	0.098709800918	45092
3	126094	0.098712760108	45093
3	126097	0.098714062852	45094
3	126100	0.098715728904	45095
3	126103	0.098721162282	45096
3	126105	0.098721162282	45097
3	126108	0.098723482818	45098
3	126112	0.098725805867	45099
3	126114	0.098727941892	45100
3	126117	0.098734997773	45101
3	126119	0.098734997773	45102
3	126122	0.09873513255	45103
3	126126	0.098739430953	45104
3	126128	0.098741996946	45105
3	126132	0.098746400701	45106
3	126134	0.098750516062	45107
3	126138	0.098751696204	45108
3	126141	0.098752496232	45109
3	126145	0.098757419913	45110
3	126148	0.098758059546	45111
3	126150	0.098758059546	45112
3	126152	0.098759721394	45113
3	126154	0.098759721394	45114
3	126157	0.098759912449	45115
3	126160	0.098766503007	45116
3	126164	0.098767143126	45117
3	126167	0.098769351815	45118
3	126169	0.098769351815	45119
3	126172	0.098773223619	45120
3	126175	0.098774748785	45121
3	126178	0.098779626938	45122
3	126180	0.098779626938	45123
3	126183	0.098781209548	45124
3	126186	0.098783716874	45125
3	126189	0.09878519046	45126
3	126191	0.09878519046	45127
3	126194	0.098788857113	45128
3	126197	0.098789068282	45129
3	126199	0.098789068282	45130
3	126202	0.098794467076	45131
3	126204	0.098795619145	45132
3	126208	0.098799092455	45133
3	126211	0.098802000341	45134
3	126215	0.09880606194	45135
3	126218	0.098811748098	45136
3	126222	0.098815596953	45137
3	126225	0.098818368401	45138
3	126227	0.098819589013	45139
3	126231	0.098822298245	45140
3	126235	0.098824618369	45141
3	126237	0.098826406981	45142
3	126239	0.098826406981	45143
3	126241	0.098827562765	45144
3	126243	0.098827562765	45145
3	126245	0.098830310505	45146
3	126249	0.098830666472	45147
3	126252	0.098832816775	45148
3	126256	0.098835505226	45149
3	126258	0.098835621331	45150
3	126260	0.098835621331	45151
3	126263	0.098839937619	45152
3	126265	0.098842556768	45153
3	126267	0.098842556768	45154
3	126270	0.09884324119	45155
3	126274	0.098849471478	45156
3	126277	0.098850206417	45157
3	126279	0.098850206417	45158
3	126282	0.098854299587	45159
3	126284	0.098854837559	45160
3	126287	0.098858269078	45161
3	126289	0.098858269078	45162
3	126292	0.098860398645	45163
3	126295	0.098862859349	45164
3	126299	0.098863444743	45165
3	126303	0.098866661014	45166
3	126305	0.098868457841	45167
3	126308	0.098870981884	45168
3	126310	0.098870981884	45169
3	126313	0.098873468925	45170
3	126316	0.098875238041	45171
3	126320	0.098879919324	45172
3	126322	0.098881164789	45173
3	126326	0.098883044842	45174
3	126328	0.098885614592	45175
3	126331	0.098887329529	45176
3	126335	0.098887543932	45177
3	126338	0.098891223723	45178
3	126342	0.09889521145	45179
3	126346	0.098897592447	45180
3	126349	0.098897689204	45181
3	126351	0.098897689204	45182
3	126354	0.098901115047	45183
3	126358	0.098904922309	45184
3	126361	0.098905481398	45185
3	126364	0.09890689552	45186
3	126366	0.09890689552	45187
3	126369	0.098910143297	45188
3	126372	0.098911947149	45189
3	126375	0.098916246853	45190
3	126377	0.098916246853	45191
3	126379	0.098921391151	45192
3	126381	0.098921391151	45193
3	126384	0.098921921951	45194
3	126388	0.098927529569	45195
3	126390	0.098928605729	45196
3	126393	0.098930338102	45197
3	126395	0.098930338102	45198
3	126397	0.098932007228	45199
3	126401	0.098932994176	45200
3	126404	0.098939138363	45201
3	126407	0.098940901505	45202
3	126409	0.098940901505	45203
3	126412	0.098941929705	45204
3	126414	0.098945038784	45205
3	126417	0.098946492617	45206
3	126420	0.098948784736	45207
3	126424	0.098949899232	45208
3	126426	0.098951454204	45209
3	126430	0.098952511699	45210
3	126433	0.098960600538	45211
3	126435	0.098960600538	45212
3	126438	0.098962377449	45213
3	126441	0.098966390455	45214
3	126443	0.098966390455	45215
3	126446	0.098970796183	45216
3	126449	0.098972417569	45217
3	126451	0.098972417569	45218
3	126454	0.098972984923	45219
3	126456	0.098975553925	45220
3	126460	0.098980355674	45221
3	126463	0.098980611049	45222
3	126467	0.098982617807	45223
3	126470	0.098985839259	45224
3	126472	0.098986142373	45225
3	126474	0.098986142373	45226
3	126477	0.098987246519	45227
3	126480	0.098990985579	45228
3	126482	0.098990985579	45229
3	126485	0.098996552969	45230
3	126488	0.098999057038	45231
3	126490	0.098999057038	45232
3	126493	0.099005111828	45233
3	126497	0.099007387575	45234
3	126500	0.099008732363	45235
3	126502	0.099008732363	45236
3	126504	0.099011193358	45237
3	126506	0.099011193358	45238
3	126509	0.099012825343	45239
3	126512	0.099013953563	45240
3	126516	0.099019139547	45241
3	126518	0.099020075866	45242
3	126520	0.099020075866	45243
3	126523	0.099021665558	45244
3	126525	0.099024943481	45245
3	126529	0.099025959854	45246
3	126531	0.099032166948	45247
3	126533	0.099032166948	45248
3	126536	0.099035391201	45249
3	126539	0.099035945654	45250
3	126541	0.099035945654	45251
3	126543	0.099037950275	45252
3	126547	0.099039381232	45253
3	126549	0.099040075704	45254
3	126553	0.099041905966	45255
3	126555	0.099048250772	45256
3	126557	0.099048250772	45257
3	126560	0.099050283487	45258
3	126562	0.099055476774	45259
3	126566	0.099056619614	45260
3	126569	0.099060631455	45261
3	126571	0.09906312028	45262
3	126573	0.09906312028	45263
3	126575	0.099064838549	45264
3	126577	0.099064838549	45265
3	126580	0.09906898132	45266
3	126582	0.099069402876	45267
3	126586	0.09907260378	45268
3	126589	0.099075989656	45269
3	126591	0.099076653024	45270
3	126594	0.099079834856	45271
3	126598	0.09908190414	45272
3	126601	0.099083383233	45273
3	126604	0.099086707829	45274
3	126608	0.09909219728	45275
3	126611	0.099094745896	45276
3	126613	0.099094745896	45277
3	126616	0.099096086248	45278
3	126619	0.099099935529	45279
3	126621	0.099099935529	45280
3	126624	0.099104345939	45281
3	126626	0.099107055508	45282
3	126630	0.099107635542	45283
3	126632	0.099109875392	45284
3	126636	0.099110649702	45285
3	126640	0.099112328665	45286
3	126642	0.099116554575	45287
3	126644	0.099116554575	45288
3	126647	0.099122306611	45289
3	126650	0.099126450126	45290
3	126653	0.099130608312	45291
3	126655	0.099130608312	45292
3	126658	0.099130784215	45293
3	126660	0.099136092169	45294
3	126664	0.099136919988	45295
3	126668	0.099140659986	45296
3	126672	0.099142882244	45297
3	126675	0.099144969079	45298
3	126679	0.099146620467	45299
3	126682	0.099149005081	45300
3	126686	0.099153691459	45301
3	126688	0.099155047116	45302
3	126692	0.099156078285	45303
3	126695	0.099157500194	45304
3	126698	0.099159247674	45305
3	126702	0.099161500061	45306
3	126704	0.099163805755	45307
3	126708	0.099165261645	45308
3	126710	0.099169678162	45309
3	126712	0.099169678162	45310
3	126714	0.09917199872	45311
3	126716	0.09917199872	45312
3	126719	0.0991727851	45313
3	126723	0.099173821861	45314
3	126725	0.099175947185	45315
3	126727	0.099175947185	45316
3	126730	0.099177617907	45317
3	126733	0.099182333136	45318
3	126735	0.099182333136	45319
3	126737	0.099183430771	45320
3	126739	0.099183430771	45321
3	126742	0.099185163098	45322
3	126745	0.099186849682	45323
3	126748	0.099192292368	45324
3	126752	0.099193442716	45325
3	126756	0.099198040421	45326
3	126758	0.09920076107	45327
3	126762	0.099202765481	45328
3	126764	0.099205534262	45329
3	126767	0.099207186617	45330
3	126770	0.099209445026	45331
3	126772	0.099209445026	45332
3	126775	0.099212595924	45333
3	126779	0.099215146511	45334
3	126782	0.099215458278	45335
3	126786	0.099220043419	45336
3	126788	0.099224604456	45337
3	126792	0.099225024793	45338
3	126795	0.099228601777	45339
3	126797	0.099228601777	45340
3	126800	0.099232543694	45341
3	126802	0.099234209417	45342
3	126806	0.099239846138	45343
3	126809	0.099242883552	45344
3	126812	0.099243980952	45345
3	126814	0.099243980952	45346
3	126817	0.09924914533	45347
3	126820	0.099250946707	45348
3	126822	0.099253680249	45349
3	126825	0.099259136815	45350
3	126827	0.099259136815	45351
3	126830	0.099259203529	45352
3	126834	0.09926334263	45353
3	126838	0.099266921698	45354
3	126841	0.099267144929	45355
3	126844	0.099274935773	45356
3	126848	0.099275076627	45357
3	126851	0.099277471273	45358
3	126854	0.099279147959	45359
3	126857	0.099286527724	45360
3	126861	0.099287368795	45361
3	126864	0.099293037785	45362
3	126866	0.099293037785	45363
3	126868	0.099295346406	45364
3	126872	0.099296042249	45365
3	126874	0.099297577868	45366
3	126878	0.099300177741	45367
3	126881	0.099300570127	45368
3	126883	0.099300570127	45369
3	126885	0.099304894745	45370
3	126887	0.099304894745	45371
3	126890	0.099306379155	45372
3	126893	0.099307995125	45373
3	126896	0.099310360037	45374
3	126900	0.099315785111	45375
3	126903	0.099316874925	45376
3	126905	0.099316874925	45377
3	126907	0.099323898595	45378
3	126909	0.099323898595	45379
3	126912	0.099325252271	45380
3	126914	0.099332993392	45381
3	126916	0.099332993392	45382
3	126919	0.099333870211	45383
3	126922	0.099334126276	45384
3	126925	0.099338412515	45385
3	126927	0.099338412515	45386
3	126930	0.099340705576	45387
3	126933	0.099341371451	45388
3	126937	0.099343186575	45389
3	126939	0.099347768871	45390
3	126943	0.099350058099	45391
3	126945	0.099351967087	45392
3	126949	0.099354864831	45393
3	126952	0.099358373696	45394
3	126954	0.099360397033	45395
3	126957	0.099362846121	45396
3	126959	0.099362846121	45397
3	126962	0.099368086706	45398
3	126964	0.099369013962	45399
3	126968	0.099372247308	45400
3	126971	0.099374319498	45401
3	126973	0.099374319498	45402
3	126976	0.099374607157	45403
3	126979	0.099376556801	45404
3	126981	0.099377282335	45405
3	126984	0.099378449314	45406
3	126988	0.099382345222	45407
3	126991	0.099385317572	45408
3	126993	0.099387217126	45409
3	126995	0.099387217126	45410
3	126997	0.09938854339	45411
3	126999	0.09938854339	45412
3	127002	0.099394084435	45413
3	127004	0.099394432056	45414
3	127006	0.099394432056	45415
3	127009	0.099395453797	45416
3	127012	0.099400839535	45417
3	127015	0.099402460951	45418
3	127017	0.099402460951	45419
3	127020	0.099407863906	45420
3	127022	0.099410892694	45421
3	127024	0.099410892694	45422
3	127027	0.099413010189	45423
3	127029	0.099419366136	45424
3	127031	0.099419366136	45425
3	127034	0.099422973211	45426
3	127037	0.099429322941	45427
3	127041	0.099430458181	45428
3	127044	0.099431625361	45429
3	127047	0.099434864889	45430
3	127050	0.099436446744	45431
3	127053	0.099439771185	45432
3	127055	0.099439771185	45433
3	127058	0.099440641582	45434
3	127060	0.099445456381	45435
3	127062	0.099445456381	45436
3	127065	0.099446398367	45437
3	127067	0.099452212661	45438
3	127071	0.099452239925	45439
3	127074	0.099453547621	45440
3	127076	0.099454349821	45441
3	127078	0.099454349821	45442
3	127080	0.099455557958	45443
3	127084	0.099456669567	45444
3	127087	0.099458399457	45445
3	127089	0.099458399457	45446
3	127092	0.099463565922	45447
3	127094	0.09946489563	45448
3	127096	0.09946489563	45449
3	127098	0.09946830937	45450
3	127100	0.09946830937	45451
3	127103	0.099468768727	45452
3	127106	0.099471148729	45453
3	127109	0.099471489319	45454
3	127113	0.099477515985	45455
3	127116	0.099477935831	45456
3	127118	0.099477935831	45457
3	127121	0.099486187738	45458
3	127124	0.09948660256	45459
3	127127	0.099491877463	45460
3	127131	0.099492389714	45461
3	127134	0.099494647091	45462
3	127136	0.099496687925	45463
3	127140	0.099498354427	45464
3	127142	0.099503596433	45465
3	127144	0.099503596433	45466
3	127147	0.099505485549	45467
3	127150	0.099512538369	45468
3	127152	0.099512538369	45469
3	127155	0.099514652931	45470
3	127158	0.099518636424	45471
3	127160	0.099518636424	45472
3	127162	0.099520409777	45473
3	127166	0.099523727073	45474
3	127168	0.099526098952	45475
3	127172	0.099530323535	45476
3	127175	0.099531628804	45477
3	127178	0.099532906644	45478
3	127182	0.099534677389	45479
3	127185	0.099536679987	45480
3	127187	0.099536679987	45481
3	127189	0.099538730083	45482
3	127191	0.099538730083	45483
3	127194	0.099542075792	45484
3	127197	0.099543688693	45485
3	127200	0.099545167608	45486
3	127202	0.099545167608	45487
3	127205	0.099547356026	45488
3	127208	0.099548113076	45489
3	127210	0.099548113076	45490
3	127212	0.099549370215	45491
3	127214	0.099549370215	45492
3	127217	0.099551926696	45493
3	127220	0.099552995035	45494
3	127224	0.099554830992	45495
3	127227	0.099562104733	45496
3	127229	0.099562104733	45497
3	127232	0.099563600964	45498
3	127235	0.099571988706	45499
3	127237	0.099571988706	45500
3	127240	0.099572326804	45501
3	127243	0.099576888941	45502
3	127247	0.099578263992	45503
3	127250	0.099579293724	45504
3	127252	0.099579293724	45505
3	127255	0.099583299236	45506
3	127257	0.099584459185	45507
3	127261	0.099589461204	45508
3	127264	0.099590532208	45509
3	127267	0.099591748639	45510
3	127269	0.099591748639	45511
3	127271	0.099596805932	45512
3	127275	0.099600237721	45513
3	127277	0.099600403846	45514
3	127281	0.099601996946	45515
3	127284	0.099605408682	45516
3	127286	0.099607131829	45517
3	127289	0.099609561871	45518
3	127293	0.099612937816	45519
3	127296	0.099618429819	45520
3	127300	0.099621623045	45521
3	127303	0.099622968024	45522
3	127306	0.099624333663	45523
3	127309	0.099629016755	45524
3	127313	0.099630227762	45525
3	127315	0.099633377192	45526
3	127318	0.099637293727	45527
3	127320	0.099637293727	45528
3	127322	0.099638688988	45529
3	127326	0.099639352531	45530
3	127328	0.09964134994	45531
3	127332	0.099641926224	45532
3	127336	0.099644136861	45533
3	127338	0.099646147936	45534
3	127342	0.099652891311	45535
3	127344	0.099655017379	45536
3	127346	0.099655017379	45537
3	127349	0.09965787307	45538
3	127352	0.099661734027	45539
3	127356	0.099661869561	45540
3	127359	0.099663726881	45541
3	127361	0.099663929419	45542
3	127364	0.099667701679	45543
3	127366	0.099667701679	45544
3	127369	0.09967348365	45545
3	127371	0.099674401863	45546
3	127373	0.099674401863	45547
3	127375	0.099675617208	45548
3	127377	0.099675617208	45549
3	127380	0.099681500401	45550
3	127383	0.099683061447	45551
3	127385	0.099683061447	45552
3	127387	0.099687765996	45553
3	127389	0.099687765996	45554
3	127392	0.099689047722	45555
3	127395	0.09969438863	45556
3	127398	0.099696010926	45557
3	127400	0.099697647275	45558
3	127403	0.099699396589	45559
3	127405	0.099699396589	45560
3	127407	0.099702663162	45561
3	127409	0.099702663162	45562
3	127412	0.099703179935	45563
3	127416	0.099705204678	45564
3	127418	0.099711975146	45565
3	127422	0.099713013795	45566
3	127425	0.099717817217	45567
3	127429	0.099722736118	45568
3	127431	0.099724776408	45569
3	127433	0.099724776408	45570
3	127435	0.099730052889	45571
3	127437	0.099730052889	45572
3	127440	0.099731542608	45573
3	127443	0.099735948901	45574
3	127447	0.099736629658	45575
3	127450	0.099742386213	45576
3	127452	0.099742386213	45577
3	127454	0.099744505883	45578
3	127456	0.099744505883	45579
3	127459	0.09974567223	45580
3	127462	0.099749643927	45581
3	127464	0.099749643927	45582
3	127467	0.099750170199	45583
3	127469	0.099754851113	45584
3	127471	0.099754851113	45585
3	127474	0.099759984922	45586
3	127478	0.099761097635	45587
3	127480	0.099762790161	45588
3	127482	0.099762790161	45589
3	127485	0.099768718581	45590
3	127488	0.099770308283	45591
3	127490	0.099770308283	45592
3	127493	0.099771033634	45593
3	127495	0.099775302272	45594
3	127498	0.099778514162	45595
3	127502	0.099780401982	45596
3	127505	0.099784935532	45597
3	127509	0.099789625109	45598
3	127512	0.099793587709	45599
3	127514	0.099793587709	45600
3	127517	0.099799380267	45601
3	127519	0.099802276276	45602
3	127523	0.099806267209	45603
3	127525	0.099808143759	45604
3	127527	0.099808143759	45605
3	127530	0.099811876114	45606
3	127533	0.099816009008	45607
3	127535	0.099816009008	45608
3	127537	0.09981801191	45609
3	127539	0.09981801191	45610
3	127542	0.099818737453	45611
3	127545	0.099819901878	45612
3	127547	0.099819901878	45613
3	127550	0.099820673633	45614
3	127552	0.09982798979	45615
3	127554	0.09982798979	45616
3	127556	0.099829563231	45617
3	127558	0.099829563231	45618
3	127561	0.099830396173	45619
3	127564	0.099833248708	45620
3	127566	0.099837849494	45621
3	127568	0.099837849494	45622
3	127571	0.099838247461	45623
3	127574	0.099842875379	45624
3	127577	0.099846930519	45625
3	127581	0.099847035017	45626
3	127584	0.099850219766	45627
3	127587	0.099850314157	45628
3	127590	0.09985269584	45629
3	127592	0.09985269584	45630
3	127594	0.099855789385	45631
3	127598	0.099855830733	45632
3	127600	0.099860043458	45633
3	127602	0.099860043458	45634
3	127605	0.099860301409	45635
3	127609	0.099864500556	45636
3	127612	0.099866832922	45637
3	127614	0.09986700075	45638
3	127618	0.099871098213	45639
3	127620	0.099876310333	45640
3	127624	0.099880831664	45641
3	127626	0.099880839765	45642
3	127628	0.099880839765	45643
3	127630	0.099887828434	45644
3	127634	0.099889184648	45645
3	127638	0.099895230439	45646
3	127640	0.099896887414	45647
3	127643	0.099900875092	45648
3	127647	0.099901547345	45649
3	127649	0.099904394862	45650
3	127653	0.099906717948	45651
3	127656	0.099908259388	45652
3	127658	0.099908259388	45653
3	127660	0.099911236632	45654
3	127662	0.099911236632	45655
3	127665	0.099913211753	45656
3	127668	0.099917869565	45657
3	127670	0.09992089867	45658
3	127672	0.09992089867	45659
3	127674	0.099923111536	45660
3	127678	0.099927321896	45661
3	127682	0.099928346217	45662
3	127684	0.099931162835	45663
3	127686	0.099931162835	45664
3	127688	0.099932412727	45665
3	127690	0.099932412727	45666
3	127692	0.099937917279	45667
3	127696	0.09993818244	45668
3	127698	0.099945549395	45669
3	127700	0.099945549395	45670
3	127703	0.099945682695	45671
3	127707	0.099948396625	45672
3	127710	0.099951937787	45673
3	127713	0.09995367456	45674
3	127715	0.09995425909	45675
3	127717	0.09995425909	45676
3	127719	0.099955632855	45677
3	127723	0.099960534239	45678
3	127725	0.099962734192	45679
3	127727	0.099962734192	45680
3	127730	0.099967661052	45681
3	127732	0.099971103785	45682
3	127736	0.099976304607	45683
3	127738	0.099980901703	45684
3	127742	0.0999851401	45685
3	127744	0.099989015148	45686
3	127746	0.099989015148	45687
3	127749	0.099993239805	45688
3	127752	0.099995960057	45689
3	127756	0.099998139614	45690

