file 37444216 1591438114                                        
version 2
run Aufgabe-2-0-20200606-12:05:36-16916
attr configname Aufgabe-2
attr datetime 20200606-12:05:36
attr experiment Aufgabe-2
attr inifile omnetpp.ini
attr iterationvars ""
attr iterationvarsf ""
attr measurement ""
attr network SrcSink
attr processid 16916
attr repetition 0
attr replication #0
attr resultdir results
attr runnumber 0
attr seedset 0
param SrcSink.num_nodes 10

vector 0 SrcSink.node[0] Send-counter-vector ETV
0	455 9 1 1 0 0 1 1 1 1 1
vector 1 SrcSink.node[1] Send-counter-vector ETV
vector 2 SrcSink.node[2] Send-counter-vector ETV
vector 3 SrcSink.node[3] Send-counter-vector ETV
vector 4 SrcSink.node[4] Send-counter-vector ETV
vector 5 SrcSink.node[5] Send-counter-vector ETV
vector 6 SrcSink.node[6] Send-counter-vector ETV
vector 7 SrcSink.node[7] Send-counter-vector ETV
vector 8 SrcSink.node[8] Send-counter-vector ETV
vector 9 SrcSink.node[9] Send-counter-vector ETV
vector 10 SrcSink.node[1] Receive-counter-vector ETV
vector 11 SrcSink.node[2] Receive-counter-vector ETV
vector 12 SrcSink.node[3] Receive-counter-vector ETV
vector 13 SrcSink.node[4] Receive-counter-vector ETV
vector 14 SrcSink.node[5] Receive-counter-vector ETV
vector 15 SrcSink.node[6] Receive-counter-vector ETV
vector 16 SrcSink.node[7] Receive-counter-vector ETV
vector 17 SrcSink.node[8] Receive-counter-vector ETV
vector 18 SrcSink.node[9] Receive-counter-vector ETV
vector 19 SrcSink.node[0] Receive-counter-vector ETV
0	1454 43870 80 100957 0.00000642487 0.008443137389 1562 2 1563 1222265 1274008593
1	45324 43447 2 100963 0 0.008443980538 1548 1 1548 1198926 1237691274
2	88771 44403 3 100974 0 0.008444658555 1582 1 1582 1252153 1321021415
3	133174 43739 4 100926 0 0.008441142745 1559 1 1559 1216020 1264255460
4	176913 42780 5 100864 0 0.008437070283 1526 1 1526 1165101 1185684451
5	219693 42421 6 100929 0 0.008441519702 1512 1 1512 1143828 1153359900
6	262114 43917 7 100940 0 0.008442717364 1564 1 1564 1223830 1276454690
7	306031 43795 8 100971 0 0.008444419437 1560 1 1560 1217580 1266689060
8	349826 43017 9 100959 0 0.008443767712 1534 1 1534 1177345 1204423935
9	392843 42802 10 100915 0 0.008440729083 1526 1 1526 1165101 1185684451
10	435645 254331 11 100962 0 0.008443767712 8578 1 8578 36795331 210432497989
11	689976 255690 12 100964 0 0.008443980538 8623 1 8623 37182376 213761479624
12	945666 255215 13 100975 0 0.008444658555 8608 1 8608 37053136 212647947504
13	1200881 254001 14 100966 0 0.008443980538 8566 1 8566 36692461 209550644771
14	1454882 252510 15 100967 0 0.008443980538 8518 1 8518 36282421 206047868859
15	1707392 250666 16 100968 0 0.008443980538 8455 1 8455 35747740 201510010380
16	1958058 251790 17 100969 0 0.008443980538 8493 1 8493 36069771 204239066659
17	2209848 253698 18 100972 0 0.008444419437 8556 1 8556 36606846 208817651866
18	2463546 253458 19 100973 0 0.008444419437 8548 1 8548 36538426 208232489774
19	2717004 253672 20 100961 0 0.008443767712 8556 1 8556 36606846 208817651866
10	2970676 1043568 100984 487413 0.008445334067 0.041187419249 32768 8579 41346 817971200 23350637084672
13	4014244 1043542 100976 487567 0.008444658555 0.041196426297 32768 8567 41334 817577984 23331010494464
12	5057786 1043605 100986 487860 0.008445334067 0.041221694972 32768 8609 41376 818954240 23399744847872
15	6101391 1043452 100978 487938 0.008444658555 0.041229550657 32768 8456 41223 813940736 23149911916544
11	7144843 1043602 100985 488119 0.008445334067 0.041244743796 32768 8624 41391 819445760 23424320847872
17	8188445 1043573 100980 488354 0.008444658555 0.041264932596 32768 8557 41324 817250304 23314662211584
18	9232018 1043546 100982 488497 0.008445334067 0.041274889024 32768 8549 41316 816988160 23301588303872
16	10275564 1043509 100979 488521 0.008444658555 0.041277557384 32768 8494 41261 815185920 23211818729472
14	11319073 1043490 100977 488715 0.008444658555 0.041292563306 32768 8519 41286 816005120 23252598505472
19	12362563 1043541 100983 488806 0.008445334067 0.041299764439 32768 8557 41324 817250304 23314662211584
10	13406104 1044964 487420 874378 0.041187689182 0.07382793154 32768 41347 74114 1891713024 1.121415697367e+014
16	14451068 1044869 488533 874595 0.041278513058 0.073846708735 32768 41262 74029 1888927744 1.1182021527142e+014
12	15495937 1044943 487873 874706 0.041223852533 0.073856024547 32768 41377 74144 1892696064 1.1225510200934e+014
15	16540880 1044904 487944 874957 0.041229585216 0.073875765816 32768 41224 73991 1887682560 1.1167670407987e+014
14	17585784 1044909 488725 874996 0.041293665245 0.073878340162 32768 41287 74054 1889746944 1.1191468213862e+014
13	18630693 1044922 487571 875110 0.041196983499 0.073887859069 32768 41335 74102 1891319808 1.1209617334272e+014
17	19675615 1044862 488365 875242 0.041266302216 0.073899867428 32768 41325 74092 1890992128 1.1205835022336e+014
11	20720477 1044935 488140 875278 0.041246780941 0.073903966338 32768 41392 74159 1893187584 1.1231189026406e+014
19	21765412 1044923 488829 875923 0.041301619892 0.073957838986 32768 41325 74092 1890992128 1.1205835022336e+014
18	22810335 1044835 488501 876250 0.041275731349 0.073983261935 32768 41317 74084 1890729984 1.1202809644646e+014
0	23855170 507606 101022 1184452 0.008448013461 0.099998532321 16612 1564 18175 163952134 2000144196206
1	24362776 507862 101030 1184456 0.008448181635 0.099998705407 16624 1549 18172 163920952 1999189630696
2	24870638 505963 101052 1184442 0.008450861537 0.099997802633 16562 1583 18144 163359287 1989873827305
3	25376601 506547 101007 1184423 0.008447890961 0.09999698566 16581 1560 18140 163322850 1988613992030
4	25883148 507630 100993 1184458 0.008445969847 0.099998946069 16615 1527 18141 163391910 1989021658920
5	26390778 508740 101018 1184405 0.008447922709 0.099995226377 16654 1513 18166 163867033 1997293177671
6	26899518 509024 100995 1184428 0.008446982508 0.09999716754 16658 1565 18222 164805923 2015708328005
7	27408542 509656 100998 1184401 0.008447528374 0.099994868562 16681 1561 18241 165158581 2022033804861
8	27918198 510965 100981 1184418 0.008445334067 0.099996664055 16723 1535 18257 165490808 2027424778330
9	28429163 508701 100989 1184438 0.008445340491 0.099997326601 16647 1527 18173 163972950 1999571895448
10	28937864 854329 874385 1184453 0.073828588277 0.099998532321 26287 74115 100401 2293751046 2.0166183580484e+014
11	29792193 855203 875284 1184457 0.073904400772 0.099998705407 26309 74160 100468 2297144026 2.0209034423577e+014
12	30647396 853076 874710 1184455 0.073856172334 0.099998532321 26249 74145 100393 2290723981 2.0141634305539e+014
13	31500472 847474 875115 1184444 0.073888210172 0.099997802633 26082 74103 100184 2272876767 1.995450049615e+014
14	32347946 844978 875014 1184459 0.073879883357 0.099998946069 26008 74055 100062 2264217468 1.9858539551842e+014
15	33192924 845952 874966 1184460 0.073876926854 0.099998946069 26042 73992 100033 2265979525 1.9864031955573e+014
16	34038876 854717 874603 1184461 0.073846958064 0.099998946069 26302 74030 100331 2293021511 2.0142306162551e+014
17	34893593 852877 875251 1184462 0.073900573865 0.099998946069 26245 74093 100337 2288957675 2.0113790667762e+014
18	35746470 847864 876254 1184463 0.073983896304 0.099998946069 26095 74085 100179 2273709540 1.9959364003772e+014
19	36594334 849880 875930 1184464 0.07395787554 0.099998946069 26153 74093 100245 2279730857 2.0021253519528e+014

