file 43532716 1590088494                                        
version 2
run Aufgabe-2-0-20200521-20:54:52-13936
attr configname Aufgabe-2
attr datetime 20200521-20:54:52
attr experiment Aufgabe-2
attr inifile omnetpp.ini
attr iterationvars ""
attr iterationvarsf ""
attr measurement ""
attr network SrcSink
attr processid 13936
attr repetition 0
attr replication #0
attr resultdir results
attr runnumber 0
attr seedset 0
param SrcSink.num_nodes 10

vector 0 SrcSink.node[0] Send-counter-vector ETV
vector 1 SrcSink.node[1] Send-counter-vector ETV
vector 2 SrcSink.node[2] Send-counter-vector ETV
vector 3 SrcSink.node[3] Send-counter-vector ETV
vector 4 SrcSink.node[4] Send-counter-vector ETV
vector 5 SrcSink.node[5] Send-counter-vector ETV
vector 6 SrcSink.node[6] Send-counter-vector ETV
vector 7 SrcSink.node[7] Send-counter-vector ETV
vector 8 SrcSink.node[8] Send-counter-vector ETV
vector 9 SrcSink.node[9] Send-counter-vector ETV
vector 10 SrcSink.node[1] Receive-counter-vector ETV
vector 11 SrcSink.node[2] Receive-counter-vector ETV
vector 12 SrcSink.node[3] Receive-counter-vector ETV
vector 13 SrcSink.node[4] Receive-counter-vector ETV
vector 14 SrcSink.node[5] Receive-counter-vector ETV
vector 15 SrcSink.node[6] Receive-counter-vector ETV
vector 16 SrcSink.node[7] Receive-counter-vector ETV
vector 17 SrcSink.node[8] Receive-counter-vector ETV
vector 18 SrcSink.node[9] Receive-counter-vector ETV
vector 19 SrcSink.node[0] Receive-counter-vector ETV
11	1445 1024058 12 376534 0 0.027515564566 32768 1 32768 536887296 11728660905984
12	1025503 1024054 13 376673 0 0.027528822841 32768 1 32768 536887296 11728660905984
10	2049557 1024085 11 376819 0 0.027538084131 32768 1 32768 536887296 11728660905984
13	3073642 1024136 14 377693 0 0.027599021557 32768 1 32768 536887296 11728660905984
19	4097778 1024092 20 377754 0 0.027606164489 32768 1 32768 536887296 11728660905984
17	5121870 1024177 18 378071 0 0.027628347451 32768 1 32768 536887296 11728660905984
18	6146047 1024176 19 378483 0 0.027656083103 32768 1 32768 536887296 11728660905984
14	7170223 1024130 15 379197 0 0.027705871351 32768 1 32768 536887296 11728660905984
16	8194353 1024220 17 379467 0 0.027729714373 32768 1 32768 536887296 11728660905984
15	9218573 1024258 16 379818 0 0.027754848244 32768 1 32768 536887296 11728660905984
12	10242831 1045003 376677 754534 0.027528949043 0.055300023604 32768 32769 65536 1610629120 82098478825472
13	11287834 1044975 377696 755182 0.027599949525 0.055349531997 32768 32769 65536 1610629120 82098478825472
11	12332809 1044981 376544 755271 0.027516593727 0.055355538059 32768 32769 65536 1610629120 82098478825472
10	13377790 1044992 376827 755361 0.027538591426 0.055362671919 32768 32769 65536 1610629120 82098478825472
14	14422782 1044975 379211 755911 0.027705950061 0.055399845798 32768 32769 65536 1610629120 82098478825472
17	15467757 1044920 378077 756722 0.027629068267 0.055459643256 32768 32769 65536 1610629120 82098478825472
15	16512677 1044962 379829 756906 0.02775491338 0.055474411298 32768 32769 65536 1610629120 82098478825472
16	17557639 1044940 379477 756973 0.027729795813 0.055479398302 32768 32769 65536 1610629120 82098478825472
18	18602579 1044921 378498 757148 0.027657765446 0.055493953221 32768 32769 65536 1610629120 82098478825472
19	19647500 1044968 377772 757366 0.027607608899 0.055509102032 32768 32769 65536 1610629120 82098478825472
10	20692468 1056575 755371 1132988 0.055362671919 0.083037901621 32768 65537 98304 2684370944 2.2283704092262e+014
12	21749043 1056543 754539 1133005 0.055300101324 0.08303813395 32768 65537 98304 2684370944 2.2283704092262e+014
11	22805586 1056602 755282 1133227 0.055355730685 0.083055563596 32768 65537 98304 2684370944 2.2283704092262e+014
16	23862188 1056573 757000 1134092 0.055480088737 0.083123831722 32768 65537 98304 2684370944 2.2283704092262e+014
17	24918761 1056567 756729 1134183 0.055460448366 0.083131508257 32768 65537 98304 2684370944 2.2283704092262e+014
13	25975328 1056617 755193 1134278 0.0553499222 0.083139794503 32768 65537 98304 2684370944 2.2283704092262e+014
19	27031945 1056710 757374 1134635 0.055509181428 0.083169376657 32768 65537 98304 2684370944 2.2283704092262e+014
18	28088655 1056648 757154 1134702 0.055494091064 0.083173773972 32768 65537 98304 2684370944 2.2283704092262e+014
14	29145303 1056641 755924 1135304 0.055400789563 0.08321966489 32768 65537 98304 2684370944 2.2283704092262e+014
15	30201944 1056649 756919 1135754 0.055474758985 0.083256584372 32768 65537 98304 2684370944 2.2283704092262e+014
0	31258593 553736 1 1364082 0 0.099998532321 18175 1 18175 165174400 2001418204800
1	31812329 553561 2 1364086 0 0.099998705407 18172 1 18172 165119878 2000427321970
2	32365890 552590 3 1364072 0 0.099997802633 18144 1 18144 164611440 1991194848720
3	32918480 552506 4 1364053 0 0.09999698566 18140 1 18140 164538870 1989878247490
4	33470986 552642 5 1364098 0 0.099998946069 18141 1 18141 164557011 1990207343371
5	34023628 553411 6 1364025 0 0.099995226377 18166 1 18166 165010861 1998446537571
6	34577039 555192 7 1364058 0 0.09999716754 18222 1 18222 166029753 2016984782695
7	35132231 555719 8 1364021 0 0.099994868562 18241 1 18241 166376161 2023300493921
8	35687950 556241 9 1364048 0 0.099996664055 18257 1 18257 166668153 2028629202265
9	36244191 553725 10 1364068 0 0.099997326601 18173 1 18173 165138051 2000757579899
10	36797916 678158 1132993 1364096 0.083037926725 0.099998705407 20061 98305 118365 2173308435 2.3611815459464e+014
11	37476074 680445 1133239 1364097 0.083055620456 0.099998705407 20128 98305 118432 2181241168 2.3705738227416e+014
12	38156519 677883 1133018 1364088 0.083039199653 0.099998705407 20053 98305 118357 2172361543 2.3600607903714e+014
13	38834402 670800 1134290 1364089 0.083140716915 0.099998705407 19844 98305 118148 2147646666 2.3308346992649e+014
14	39505202 666671 1135318 1364099 0.083220054221 0.099998946069 19722 98305 118026 2133239991 2.3138222154112e+014
15	40171873 665651 1135771 1364100 0.083256911757 0.099998946069 19693 98305 117997 2129817643 2.3097834340692e+014
16	40837524 675772 1134102 1364101 0.08312605124 0.099998946069 19991 98305 118295 2165025300 2.3513800705994e+014
17	41513296 675964 1134198 1364102 0.08313338827 0.099998946069 19997 98305 118301 2165735091 2.3522197427057e+014
18	42189260 670608 1134712 1364103 0.083174153684 0.099998946069 19839 98305 118143 2147055936 2.330136775399e+014
19	42859868 672846 1134651 1364104 0.083170306989 0.099998946069 19905 98305 118209 2154855585 2.339354127839e+014

