file 2059 1591541964                                            
version 2
run Aufgabe-1-4-0-20200607-16:57:38-16232
attr configname Aufgabe-1-4
attr datetime 20200607-16:57:38
attr experiment Aufgabe-1-4
attr inifile omnetpp.ini
attr iterationvars ""
attr iterationvarsf ""
attr measurement ""
attr network SrcSink
attr processid 16232
attr repetition 0
attr replication #0
attr resultdir results
attr runnumber 0
attr seedset 0
param SrcSink.num_nodes 2

vector 0 SrcSink.node[0] Send-counter-vector ETV
0	460 9 1 1 0 0 1 1 1 1 1
vector 1 SrcSink.node[1] Send-counter-vector ETV
1	519 9 2 2 0 0 1 1 1 1 1
vector 2 SrcSink.node[1] Receive-counter-vector ETV
2	581 9 3 3 0 0 1 1 1 1 1
vector 3 SrcSink.node[0] Receive-counter-vector ETV
3	643 9 4 4 0 0 1 1 1 1 1
3	652 9 5 5 0 0 1 2 2 2 4
0	661 22 6 6 0.000007436704 0.000007436704 1 2 2 2 4
2	683 22 7 7 0.000007436704 0.000007436704 1 2 2 2 4
1	705 22 8 8 0.000008721511 0.000008721511 1 2 2 2 4
2	727 23 10 10 0.000008721511 0.000008721511 1 3 3 3 9
3	750 22 9 9 0.000008721511 0.000008721511 1 3 3 3 9
0	772 23 11 11 0.000012249597 0.000012249597 1 3 3 3 9
0	795 280 18 65 0.000021275554 0.000075569894 12 4 15 114 1226
1	1075 232 14 62 0.000013180946 0.000070845272 10 3 12 75 645
2	1307 351 12 64 0.000012249597 0.000070845272 15 4 18 165 2095
3	1658 399 13 63 0.000012249597 0.000070845272 17 4 20 204 2856

