version 2
run Aufgabe-1-4-0-20200607-16:57:38-16232
attr configname Aufgabe-1-4
attr datetime 20200607-16:57:38
attr experiment Aufgabe-1-4
attr inifile omnetpp.ini
attr iterationvars ""
attr iterationvarsf ""
attr measurement ""
attr network SrcSink
attr processid 16232
attr repetition 0
attr replication #0
attr resultdir results
attr runnumber 0
attr seedset 0
param SrcSink.num_nodes 2

vector 0 SrcSink.node[0] Send-counter-vector ETV
0	1	0	1
vector 1 SrcSink.node[1] Send-counter-vector ETV
1	2	0	1
vector 2 SrcSink.node[1] Receive-counter-vector ETV
2	3	0	1
vector 3 SrcSink.node[0] Receive-counter-vector ETV
3	4	0	1
3	5	0	2
0	6	0.000007436704	2
2	7	0.000007436704	2
1	8	0.000008721511	2
2	10	0.000008721511	3
3	9	0.000008721511	3
0	11	0.000012249597	3
0	18	0.000021275554	4
0	22	0.000026595349	5
0	24	0.000030631914	6
0	26	0.00003181388	7
0	31	0.000041428276	8
0	36	0.000046690748	9
0	40	0.000053800664	10
0	45	0.000059637023	11
0	51	0.000064899427	12
0	54	0.00006784838	13
0	59	0.000069017488	14
0	65	0.000075569894	15
1	14	0.000013180946	3
1	16	0.000016634853	4
1	20	0.000024760378	5
1	29	0.000034090748	6
1	34	0.000042920857	7
1	38	0.000048074171	8
1	42	0.00005483346	9
1	48	0.000060530095	10
1	57	0.000068498198	11
1	62	0.000070845272	12
2	12	0.000012249597	4
2	19	0.000021275554	5
2	23	0.000026595349	6
2	25	0.000030631914	7
2	27	0.00003181388	8
2	32	0.000041428276	9
2	37	0.000046690748	10
2	41	0.000053800664	11
2	44	0.00005483346	12
2	46	0.000059637023	13
2	50	0.000060530095	14
2	52	0.000064899427	15
2	55	0.00006784838	16
2	60	0.000069017488	17
2	64	0.000070845272	18
3	13	0.000012249597	4
3	15	0.000013180946	5
3	17	0.000016634853	6
3	21	0.000024760378	7
3	28	0.00003181388	8
3	30	0.000034090748	9
3	33	0.000041428276	10
3	35	0.000042920857	11
3	39	0.000048074171	12
3	43	0.00005483346	13
3	47	0.000059637023	14
3	49	0.000060530095	15
3	53	0.000064899427	16
3	56	0.00006784838	17
3	58	0.000068498198	18
3	61	0.000069017488	19
3	63	0.000070845272	20

