file 37444214 1590135352                                        
version 2
run Aufgabe-2-0-20200522-10:14:01-5904
attr configname Aufgabe-2
attr datetime 20200522-10:14:01
attr experiment Aufgabe-2
attr inifile omnetpp.ini
attr iterationvars ""
attr iterationvarsf ""
attr measurement ""
attr network SrcSink
attr processid 5904
attr repetition 0
attr replication #0
attr resultdir results
attr runnumber 0
attr seedset 0
param SrcSink.num_nodes 10

vector 0 SrcSink.node[0] Send-counter-vector ETV
vector 1 SrcSink.node[1] Send-counter-vector ETV
vector 2 SrcSink.node[2] Send-counter-vector ETV
vector 3 SrcSink.node[3] Send-counter-vector ETV
vector 4 SrcSink.node[4] Send-counter-vector ETV
vector 5 SrcSink.node[5] Send-counter-vector ETV
vector 6 SrcSink.node[6] Send-counter-vector ETV
vector 7 SrcSink.node[7] Send-counter-vector ETV
vector 8 SrcSink.node[8] Send-counter-vector ETV
vector 9 SrcSink.node[9] Send-counter-vector ETV
vector 10 SrcSink.node[1] Receive-counter-vector ETV
vector 11 SrcSink.node[2] Receive-counter-vector ETV
vector 12 SrcSink.node[3] Receive-counter-vector ETV
vector 13 SrcSink.node[4] Receive-counter-vector ETV
vector 14 SrcSink.node[5] Receive-counter-vector ETV
vector 15 SrcSink.node[6] Receive-counter-vector ETV
vector 16 SrcSink.node[7] Receive-counter-vector ETV
vector 17 SrcSink.node[8] Receive-counter-vector ETV
vector 18 SrcSink.node[9] Receive-counter-vector ETV
vector 19 SrcSink.node[0] Receive-counter-vector ETV
11	1443 1024263 12 385448 0 0.032524055129 32768 1 32768 536887296 11728660905984
12	1025706 1024277 13 385464 0 0.032525497326 32768 1 32768 536887296 11728660905984
10	2049983 1024319 11 385903 0 0.032559240524 32768 1 32768 536887296 11728660905984
13	3074302 1024383 14 386344 0 0.032592592213 32768 1 32768 536887296 11728660905984
17	4098685 1024414 18 387488 0 0.032695210258 32768 1 32768 536887296 11728660905984
19	5123099 1024331 20 387558 0 0.032699749441 32768 1 32768 536887296 11728660905984
18	6147430 1024407 19 387801 0 0.032721562713 32768 1 32768 536887296 11728660905984
14	7171837 1024360 15 387932 0 0.032736431239 32768 1 32768 536887296 11728660905984
15	8196197 1024498 16 388700 0 0.032805438325 32768 1 32768 536887296 11728660905984
16	9220695 1024451 17 388710 0 0.032806110634 32768 1 32768 536887296 11728660905984
10	10245146 1045028 385907 772875 0.032559258781 0.065214966042 32768 32769 65536 1610629120 82098478825472
11	11290174 1045018 385455 772911 0.032524879185 0.065220280555 32768 32769 65536 1610629120 82098478825472
12	12335192 1045043 385475 773216 0.03252580606 0.06524678009 32768 32769 65536 1610629120 82098478825472
13	13380235 1044969 386348 773717 0.032592965975 0.065286891348 32768 32769 65536 1610629120 82098478825472
14	14425204 1044978 387943 773792 0.032737182504 0.065293540634 32768 32769 65536 1610629120 82098478825472
17	15470182 1044903 387512 774407 0.032697443448 0.065344617303 32768 32769 65536 1610629120 82098478825472
16	16515085 1044929 388715 774777 0.032806389324 0.06537757127 32768 32769 65536 1610629120 82098478825472
15	17560014 1044946 388714 774955 0.032806389324 0.065392632273 32768 32769 65536 1610629120 82098478825472
19	18604960 1044996 387561 774979 0.032699793837 0.065395424591 32768 32769 65536 1610629120 82098478825472
18	19649956 1044907 387806 775278 0.032721564738 0.065417092633 32768 32769 65536 1610629120 82098478825472
11	20694863 1058502 772914 1158805 0.065220856968 0.097832850929 32768 65537 98304 2684370944 2.2283704092262e+014
10	21753365 1058468 772882 1159248 0.065217248621 0.097867149344 32768 65537 98304 2684370944 2.2283704092262e+014
12	22811833 1058427 773236 1159881 0.065249219933 0.097917296768 32768 65537 98304 2684370944 2.2283704092262e+014
17	23870260 1058489 774433 1160779 0.065347948071 0.097990097052 32768 65537 98304 2684370944 2.2283704092262e+014
16	24928749 1058490 774781 1160895 0.065377889138 0.09800014449 32768 65537 98304 2684370944 2.2283704092262e+014
19	25987239 1058601 774995 1161230 0.065397868023 0.098025570935 32768 65537 98304 2684370944 2.2283704092262e+014
18	27045840 1058544 775298 1162112 0.065419016828 0.098100630185 32768 65537 98304 2684370944 2.2283704092262e+014
13	28104384 1058564 773723 1162127 0.065287816525 0.098101492768 32768 65537 98304 2684370944 2.2283704092262e+014
14	29162948 1058668 773799 1163679 0.065294979796 0.098232737502 32768 65537 98304 2684370944 2.2283704092262e+014
15	30221616 1058631 774971 1164090 0.065395258097 0.098261591913 32768 65537 98304 2684370944 2.2283704092262e+014
0	31280247 551485 1 1184452 0 0.099998532321 18175 1 18175 165174400 2001418204800
1	31831732 551309 2 1184456 0 0.099998705407 18172 1 18172 165119878 2000427321970
2	32383041 550366 3 1184442 0 0.099997802633 18144 1 18144 164611440 1991194848720
3	32933407 550286 4 1184423 0 0.09999698566 18140 1 18140 164538870 1989878247490
4	33483693 550410 5 1184458 0 0.099998946069 18141 1 18141 164557011 1990207343371
5	34034103 551161 6 1184405 0 0.099995226377 18166 1 18166 165010861 1998446537571
6	34585264 552941 7 1184428 0 0.09999716754 18222 1 18222 166029753 2016984782695
7	35138205 553451 8 1184401 0 0.099994868562 18241 1 18241 166376161 2023300493921
8	35691656 553982 9 1184418 0 0.099996664055 18257 1 18257 166668153 2028629202265
9	36245638 551503 10 1184438 0 0.099997326601 18173 1 18173 165138051 2000757579899
10	36797141 69377 1159254 1184453 0.097867474978 0.099998532321 2097 98305 100401 208343241 20700294470121
11	36866518 71647 1158818 1184457 0.097833930886 0.099998705407 2164 98305 100468 215072386 21376136173254
12	36938165 69092 1159896 1184455 0.097918588568 0.099998532321 2089 98305 100393 207540061 20619657206029
13	37007257 62023 1162151 1184444 0.098103733226 0.099997802633 1880 98305 100184 186579660 18517558789380
14	37069280 57881 1163686 1184459 0.098233187324 0.099998946069 1758 98305 100062 174364593 17294543377295
15	37127161 56899 1164103 1184460 0.09826472879 0.099998946069 1729 98305 100033 171463201 17004264908449
16	37184060 67015 1160903 1184461 0.09800082207 0.099998946069 2027 98305 100331 201317586 19995154038986
17	37251075 67204 1160794 1184462 0.097990975619 0.099998946069 2033 98305 100337 201919593 20055556110345
18	37318279 61845 1162132 1184463 0.098101492768 0.099998946069 1875 98305 100179 186078750 18467376623750
19	37380124 64088 1161245 1184464 0.098026123885 0.099998946069 1941 98305 100245 192692775 19130184628015

