version 2
run Aufgabe-2-0-20200523-12:43:39-21052
attr configname Aufgabe-2
attr datetime 20200523-12:43:39
attr experiment Aufgabe-2
attr inifile omnetpp.ini
attr iterationvars ""
attr iterationvarsf ""
attr measurement ""
attr network SrcSink
attr processid 21052
attr repetition 0
attr replication #0
attr resultdir results
attr runnumber 0
attr seedset 0
param SrcSink.num_nodes 10

statistic SrcSink.node[0] Packet-sizes
field count 18019
field mean 2082.5768355625
field stddev 1180.7017425028
field min 64
field max 4096
field sum 37525952
field sqrsum 103268790272
bin	-inf	0
bin	0	282
bin	100	546
bin	200	287
bin	300	535
bin	400	253
bin	500	607
bin	600	267
bin	700	568
bin	800	612
bin	900	281
bin	1000	578
bin	1100	271
bin	1200	546
bin	1300	255
bin	1400	562
bin	1500	283
bin	1600	547
bin	1700	554
bin	1800	291
bin	1900	579
bin	2000	262
bin	2100	571
bin	2200	282
bin	2300	609
bin	2400	569
bin	2500	282
bin	2600	582
bin	2700	275
bin	2800	556
bin	2900	242
bin	3000	523
bin	3100	282
bin	3200	581
bin	3300	592
bin	3400	297
bin	3500	603
bin	3600	267
bin	3700	542
bin	3800	277
bin	3900	565
bin	4000	556
bin	4100	0
bin	4200	0
bin	4300	0
bin	4400	0
bin	4500	0
bin	4600	0
bin	4700	0
bin	4800	0
bin	4900	0
bin	5000	0
bin	5100	0
statistic SrcSink.node[0] Hop-count
field count 18019
field mean 5.4877074199456
field stddev 2.8829423893996
field min 1
field max 10
field sum 98883
field sqrsum 692395
bin	-inf	0
bin	0	0
bin	1	1831
bin	2	1827
bin	3	1786
bin	4	1867
bin	5	1773
bin	6	1685
bin	7	1794
bin	8	1859
bin	9	1803
bin	10	1794
bin	11	0
bin	12	0
bin	13	0
statistic SrcSink.node[1] Packet-sizes
field count 18105
field mean 2077.6722452361
field stddev 1184.98926076
field min 64
field max 4096
field sum 37616256
field sqrsum 103575879680
bin	-inf	0
bin	0	288
bin	100	543
bin	200	298
bin	300	571
bin	400	297
bin	500	606
bin	600	272
bin	700	589
bin	800	577
bin	900	279
bin	1000	549
bin	1100	232
bin	1200	589
bin	1300	268
bin	1400	559
bin	1500	277
bin	1600	537
bin	1700	588
bin	1800	294
bin	1900	562
bin	2000	272
bin	2100	573
bin	2200	294
bin	2300	558
bin	2400	553
bin	2500	307
bin	2600	570
bin	2700	276
bin	2800	560
bin	2900	293
bin	3000	540
bin	3100	275
bin	3200	589
bin	3300	554
bin	3400	284
bin	3500	591
bin	3600	246
bin	3700	572
bin	3800	267
bin	3900	553
bin	4000	603
bin	4100	0
bin	4200	0
bin	4300	0
bin	4400	0
bin	4500	0
bin	4600	0
bin	4700	0
bin	4800	0
bin	4900	0
bin	5000	0
bin	5100	0
bin	5200	0
statistic SrcSink.node[1] Hop-count
field count 18105
field mean 5.5177022921845
field stddev 2.8697280278043
field min 1
field max 10
field sum 99898
field sqrsum 700300
bin	-inf	0
bin	0	0
bin	1	1778
bin	2	1783
bin	3	1854
bin	4	1821
bin	5	1758
bin	6	1789
bin	7	1839
bin	8	1832
bin	9	1855
bin	10	1796
bin	11	0
bin	12	0
bin	13	0
statistic SrcSink.node[2] Packet-sizes
field count 18219
field mean 2096.4557879137
field stddev 1179.0987749673
field min 64
field max 4096
field sum 38195328
field sqrsum 105402826752
bin	-inf	0
bin	0	253
bin	100	544
bin	200	257
bin	300	542
bin	400	278
bin	500	601
bin	600	281
bin	700	563
bin	800	588
bin	900	277
bin	1000	566
bin	1100	289
bin	1200	592
bin	1300	286
bin	1400	538
bin	1500	260
bin	1600	551
bin	1700	585
bin	1800	301
bin	1900	590
bin	2000	293
bin	2100	547
bin	2200	280
bin	2300	591
bin	2400	580
bin	2500	286
bin	2600	569
bin	2700	297
bin	2800	587
bin	2900	265
bin	3000	579
bin	3100	272
bin	3200	586
bin	3300	552
bin	3400	287
bin	3500	571
bin	3600	286
bin	3700	550
bin	3800	297
bin	3900	620
bin	4000	582
bin	4100	0
bin	4200	0
bin	4300	0
bin	4400	0
bin	4500	0
bin	4600	0
bin	4700	0
bin	4800	0
bin	4900	0
bin	5000	0
bin	5100	0
bin	5200	0
statistic SrcSink.node[2] Hop-count
field count 18219
field mean 5.5142433723036
field stddev 2.8659923719437
field min 1
field max 10
field sum 100464
field sqrsum 703624
bin	-inf	0
bin	0	0
bin	1	1816
bin	2	1788
bin	3	1797
bin	4	1785
bin	5	1902
bin	6	1834
bin	7	1813
bin	8	1844
bin	9	1816
bin	10	1824
bin	11	0
bin	12	0
bin	13	0
statistic SrcSink.node[3] Packet-sizes
field count 18349
field mean 2079.9947681073
field stddev 1173.9314170128
field min 64
field max 4096
field sum 38165824
field sqrsum 104670367744
bin	-inf	0
bin	0	293
bin	100	562
bin	200	267
bin	300	527
bin	400	282
bin	500	594
bin	600	298
bin	700	562
bin	800	599
bin	900	277
bin	1000	580
bin	1100	282
bin	1200	563
bin	1300	261
bin	1400	602
bin	1500	286
bin	1600	593
bin	1700	582
bin	1800	305
bin	1900	529
bin	2000	280
bin	2100	568
bin	2200	297
bin	2300	622
bin	2400	626
bin	2500	292
bin	2600	568
bin	2700	257
bin	2800	571
bin	2900	340
bin	3000	612
bin	3100	272
bin	3200	606
bin	3300	567
bin	3400	245
bin	3500	527
bin	3600	298
bin	3700	550
bin	3800	256
bin	3900	562
bin	4000	589
bin	4100	0
bin	4200	0
bin	4300	0
bin	4400	0
bin	4500	0
bin	4600	0
bin	4700	0
bin	4800	0
bin	4900	0
bin	5000	0
statistic SrcSink.node[3] Hop-count
field count 18349
field mean 5.5106545315821
field stddev 2.8647208640461
field min 1
field max 10
field sum 101115
field sqrsum 707785
bin	-inf	0
bin	0	0
bin	1	1799
bin	2	1810
bin	3	1877
bin	4	1800
bin	5	1865
bin	6	1858
bin	7	1846
bin	8	1808
bin	9	1854
bin	10	1832
bin	11	0
bin	12	0
bin	13	0
statistic SrcSink.node[4] Packet-sizes
field count 18263
field mean 2075.0395882385
field stddev 1184.176780643
field min 64
field max 4096
field sum 37896448
field sqrsum 104244969472
bin	-inf	0
bin	0	283
bin	100	568
bin	200	304
bin	300	585
bin	400	300
bin	500	585
bin	600	276
bin	700	568
bin	800	560
bin	900	263
bin	1000	592
bin	1100	286
bin	1200	564
bin	1300	268
bin	1400	579
bin	1500	303
bin	1600	584
bin	1700	568
bin	1800	319
bin	1900	547
bin	2000	311
bin	2100	518
bin	2200	289
bin	2300	542
bin	2400	581
bin	2500	278
bin	2600	568
bin	2700	278
bin	2800	571
bin	2900	283
bin	3000	580
bin	3100	316
bin	3200	565
bin	3300	541
bin	3400	282
bin	3500	564
bin	3600	296
bin	3700	601
bin	3800	298
bin	3900	514
bin	4000	585
bin	4100	0
bin	4200	0
bin	4300	0
bin	4400	0
bin	4500	0
bin	4600	0
bin	4700	0
bin	4800	0
bin	4900	0
bin	5000	0
bin	5100	0
bin	5200	0
statistic SrcSink.node[4] Hop-count
field count 18263
field mean 5.5321688660133
field stddev 2.8649258967346
field min 1
field max 10
field sum 101034
field sqrsum 708828
bin	-inf	0
bin	0	0
bin	1	1766
bin	2	1843
bin	3	1766
bin	4	1821
bin	5	1846
bin	6	1844
bin	7	1821
bin	8	1858
bin	9	1885
bin	10	1813
bin	11	0
bin	12	0
bin	13	0
statistic SrcSink.node[5] Packet-sizes
field count 18195
field mean 2079.6535311899
field stddev 1181.1112210043
field min 64
field max 4096
field sum 37839296
field sqrsum 104073687040
bin	-inf	0
bin	0	301
bin	100	547
bin	200	292
bin	300	534
bin	400	255
bin	500	568
bin	600	312
bin	700	574
bin	800	576
bin	900	275
bin	1000	597
bin	1100	302
bin	1200	554
bin	1300	313
bin	1400	581
bin	1500	301
bin	1600	552
bin	1700	552
bin	1800	281
bin	1900	539
bin	2000	287
bin	2100	591
bin	2200	256
bin	2300	624
bin	2400	544
bin	2500	270
bin	2600	573
bin	2700	258
bin	2800	582
bin	2900	299
bin	3000	584
bin	3100	280
bin	3200	575
bin	3300	577
bin	3400	278
bin	3500	525
bin	3600	281
bin	3700	559
bin	3800	283
bin	3900	582
bin	4000	581
bin	4100	0
bin	4200	0
bin	4300	0
bin	4400	0
bin	4500	0
bin	4600	0
bin	4700	0
bin	4800	0
bin	4900	0
bin	5000	0
bin	5100	0
bin	5200	0
statistic SrcSink.node[5] Hop-count
field count 18195
field mean 5.5134377576257
field stddev 2.8850067519682
field min 1
field max 10
field sum 100317
field sqrsum 704525
bin	-inf	0
bin	0	0
bin	1	1829
bin	2	1825
bin	3	1808
bin	4	1791
bin	5	1812
bin	6	1804
bin	7	1833
bin	8	1806
bin	9	1783
bin	10	1904
bin	11	0
bin	12	0
bin	13	0
statistic SrcSink.node[6] Packet-sizes
field count 17924
field mean 2080.5391653649
field stddev 1181.4907121662
field min 64
field max 4096
field sum 37291584
field sqrsum 102605680640
bin	-inf	0
bin	0	296
bin	100	577
bin	200	262
bin	300	542
bin	400	267
bin	500	557
bin	600	264
bin	700	588
bin	800	523
bin	900	290
bin	1000	572
bin	1100	310
bin	1200	600
bin	1300	277
bin	1400	538
bin	1500	272
bin	1600	554
bin	1700	580
bin	1800	279
bin	1900	586
bin	2000	263
bin	2100	503
bin	2200	253
bin	2300	553
bin	2400	557
bin	2500	272
bin	2600	544
bin	2700	282
bin	2800	606
bin	2900	307
bin	3000	570
bin	3100	257
bin	3200	564
bin	3300	553
bin	3400	302
bin	3500	601
bin	3600	300
bin	3700	580
bin	3800	280
bin	3900	516
bin	4000	527
bin	4100	0
bin	4200	0
bin	4300	0
bin	4400	0
bin	4500	0
bin	4600	0
bin	4700	0
bin	4800	0
bin	4900	0
bin	5000	0
statistic SrcSink.node[6] Hop-count
field count 17924
field mean 5.5338094175407
field stddev 2.870238649346
field min 1
field max 10
field sum 99188
field sqrsum 696542
bin	-inf	0
bin	0	0
bin	1	1729
bin	2	1835
bin	3	1751
bin	4	1709
bin	5	1820
bin	6	1853
bin	7	1814
bin	8	1775
bin	9	1796
bin	10	1842
bin	11	0
bin	12	0
bin	13	0
statistic SrcSink.node[7] Packet-sizes
field count 18235
field mean 2085.3856868659
field stddev 1184.9284497759
field min 64
field max 4096
field sum 38027008
field sqrsum 104902524928
bin	-inf	0
bin	0	299
bin	100	553
bin	200	283
bin	300	569
bin	400	293
bin	500	562
bin	600	272
bin	700	555
bin	800	581
bin	900	305
bin	1000	561
bin	1100	295
bin	1200	569
bin	1300	289
bin	1400	591
bin	1500	280
bin	1600	530
bin	1700	588
bin	1800	282
bin	1900	560
bin	2000	270
bin	2100	569
bin	2200	287
bin	2300	537
bin	2400	561
bin	2500	289
bin	2600	561
bin	2700	283
bin	2800	543
bin	2900	301
bin	3000	583
bin	3100	289
bin	3200	588
bin	3300	602
bin	3400	296
bin	3500	584
bin	3600	293
bin	3700	555
bin	3800	272
bin	3900	573
bin	4000	582
bin	4100	0
bin	4200	0
bin	4300	0
bin	4400	0
bin	4500	0
bin	4600	0
bin	4700	0
bin	4800	0
bin	4900	0
bin	5000	0
bin	5100	0
bin	5200	0
statistic SrcSink.node[7] Hop-count
field count 18235
field mean 5.5304633945709
field stddev 2.8648186493429
field min 1
field max 10
field sum 100848
field sqrsum 707386
bin	-inf	0
bin	0	0
bin	1	1800
bin	2	1774
bin	3	1797
bin	4	1801
bin	5	1844
bin	6	1878
bin	7	1817
bin	8	1829
bin	9	1884
bin	10	1811
bin	11	0
bin	12	0
bin	13	0
statistic SrcSink.node[8] Packet-sizes
field count 18415
field mean 2080.46396959
field stddev 1187.9663880908
field min 64
field max 4096
field sum 38311744
field sqrsum 105693220864
bin	-inf	0
bin	0	297
bin	100	604
bin	200	281
bin	300	550
bin	400	314
bin	500	565
bin	600	271
bin	700	634
bin	800	544
bin	900	310
bin	1000	565
bin	1100	288
bin	1200	606
bin	1300	270
bin	1400	563
bin	1500	260
bin	1600	585
bin	1700	534
bin	1800	304
bin	1900	572
bin	2000	273
bin	2100	551
bin	2200	309
bin	2300	564
bin	2400	581
bin	2500	276
bin	2600	569
bin	2700	283
bin	2800	596
bin	2900	274
bin	3000	568
bin	3100	307
bin	3200	563
bin	3300	562
bin	3400	288
bin	3500	590
bin	3600	314
bin	3700	567
bin	3800	306
bin	3900	606
bin	4000	551
bin	4100	0
bin	4200	0
bin	4300	0
bin	4400	0
bin	4500	0
bin	4600	0
bin	4700	0
bin	4800	0
bin	4900	0
bin	5000	0
bin	5100	0
bin	5200	0
statistic SrcSink.node[8] Hop-count
field count 18415
field mean 5.4874287265816
field stddev 2.8626351708023
field min 1
field max 10
field sum 101051
field sqrsum 705407
bin	-inf	0
bin	0	0
bin	1	1830
bin	2	1846
bin	3	1856
bin	4	1826
bin	5	1909
bin	6	1828
bin	7	1862
bin	8	1816
bin	9	1838
bin	10	1804
bin	11	0
bin	12	0
bin	13	0
statistic SrcSink.node[9] Packet-sizes
field count 18107
field mean 2063.7534655106
field stddev 1179.8332747683
field min 64
field max 4096
field sum 37368384
field sqrsum 102322802688
bin	-inf	0
bin	0	288
bin	100	549
bin	200	299
bin	300	574
bin	400	287
bin	500	571
bin	600	303
bin	700	582
bin	800	570
bin	900	320
bin	1000	564
bin	1100	285
bin	1200	593
bin	1300	282
bin	1400	547
bin	1500	272
bin	1600	569
bin	1700	570
bin	1800	261
bin	1900	550
bin	2000	286
bin	2100	552
bin	2200	281
bin	2300	570
bin	2400	580
bin	2500	313
bin	2600	587
bin	2700	305
bin	2800	539
bin	2900	275
bin	3000	566
bin	3100	278
bin	3200	589
bin	3300	539
bin	3400	260
bin	3500	534
bin	3600	291
bin	3700	562
bin	3800	279
bin	3900	531
bin	4000	554
bin	4100	0
bin	4200	0
bin	4300	0
bin	4400	0
bin	4500	0
bin	4600	0
bin	4700	0
bin	4800	0
bin	4900	0
bin	5000	0
bin	5100	0
statistic SrcSink.node[9] Hop-count
field count 18107
field mean 5.5136135196333
field stddev 2.8719437841804
field min 1
field max 10
field sum 99835
field sqrsum 699791
bin	-inf	0
bin	0	0
bin	1	1786
bin	2	1810
bin	3	1788
bin	4	1835
bin	5	1819
bin	6	1814
bin	7	1775
bin	8	1830
bin	9	1819
bin	10	1831
bin	11	0
bin	12	0
bin	13	0

